data_crystal

_cell_length_a    15.06440
_cell_length_b    14.63680
_cell_length_c    10.86040
_cell_angle_alpha 90.00000
_cell_angle_beta  108.52000
_cell_angle_gamma 90.00000

_symmetry_space_group_name_Hall 'P 1'
_symmetry_space_group_name_H-M  'P 1'

loop_
_symmetry_equiv_pos_as_xyz
 'x,y,z'

loop_
_atom_site_label
_atom_site_type_symbol
_atom_site_fract_x
_atom_site_fract_y
_atom_site_fract_z
Bi         Bi      0.88980   0.02340   0.57750
Br         Br     -0.07010   0.91280   0.34830
Br         Br      0.82840   0.15960   0.41260
Br         Br      0.84970   0.10080   0.77200
C          C       0.61750   0.11800  -0.02650
H          H       0.65200   0.17180  -0.02940
C          C       0.65100   0.03570  -0.04950
H          H       0.70760   0.03330  -0.07030
C          C       0.60270  -0.04760  -0.04280
C          C       0.51820  -0.04350  -0.01100
C          C       0.53070   0.12510   0.00200
C          C       0.49430   0.21070   0.02420
C          C       0.41330   0.21250   0.05750
H          H       0.39000   0.26990   0.07430
C          C       0.63700  -0.13220  -0.06800
C          C       0.72260  -0.14330  -0.10760
C          C       0.81140  -0.12040  -0.02560
H          H       0.81810  -0.09880   0.05930
C          C       0.89050  -0.12810  -0.06380
H          H       0.95040  -0.11230  -0.00580
C          C       0.88090  -0.15940  -0.18900
C          C       0.79410  -0.18770  -0.26850
H          H       0.78800  -0.21290  -0.35140
C          C       0.71600  -0.17960  -0.22850
H          H       0.65690  -0.19920  -0.28460
C          C       1.07290  -0.12450  -0.12970
H          H       1.06250  -0.06250  -0.10320
H          H       1.12790  -0.12480  -0.15940
H          H       1.08350  -0.16610  -0.05570
C          C       0.53750   0.29870   0.00520
C          C       0.56530   0.36350   0.10370
H          H       0.55440   0.35310   0.18410
C          C       0.60900   0.44300   0.08490
H          H       0.62810   0.48680   0.15280
C          C       0.62500   0.45960  -0.03120
C          C       0.59370   0.39730  -0.13290
H          H       0.60140   0.40960  -0.21480
C          C       0.55140   0.31790  -0.11320
H          H       0.53120   0.27490  -0.18200
C          C       0.68030   0.56630  -0.20990
H          H       0.61370   0.56850  -0.26080
H          H       0.71110   0.62230  -0.22490
H          H       0.70950   0.51330  -0.23660
S          S       0.97260  -0.16110  -0.25870
S          S       0.69270   0.55700  -0.03920
Bi         Bi      0.11020   0.97660   0.42250
Bi         Bi      0.88980   0.47660   0.07750
Bi         Bi      0.11020   0.52340   0.92250
Br         Br      1.07010   0.08720   0.65170
Br         Br      0.17160   0.84040   0.58740
Br         Br      0.15030   0.89920   0.22800
C          C       0.38250  -0.11800   0.02650
H          H       0.34800  -0.17180   0.02940
C          C       0.34900  -0.03570   0.04950
H          H       0.29240  -0.03330   0.07030
C          C       0.39730   0.04760   0.04280
C          C       0.48180   0.04350   0.01100
C          C       0.46930  -0.12510  -0.00200
C          C       0.50570  -0.21070  -0.02420
C          C       0.58670  -0.21250  -0.05750
H          H       0.61000  -0.26990  -0.07430
C          C       0.36300   0.13220   0.06800
C          C       0.27740   0.14330   0.10760
C          C       0.18860   0.12040   0.02560
H          H       0.18190   0.09880  -0.05930
C          C       0.10950   0.12810   0.06380
H          H       0.04960   0.11230   0.00580
C          C       0.11910   0.15940   0.18900
C          C       0.20590   0.18770   0.26850
H          H       0.21200   0.21290   0.35140
C          C       0.28400   0.17960   0.22850
H          H       0.34310   0.19920   0.28460
C          C      -0.07290   0.12450   0.12970
H          H      -0.06250   0.06250   0.10320
H          H      -0.12790   0.12480   0.15940
H          H      -0.08350   0.16610   0.05570
C          C       0.46250  -0.29870  -0.00520
C          C       0.43470  -0.36350  -0.10370
H          H       0.44560  -0.35310  -0.18410
C          C       0.39100  -0.44300  -0.08490
H          H       0.37190  -0.48680  -0.15280
C          C       0.37500  -0.45960   0.03120
C          C       0.40630  -0.39730   0.13290
H          H       0.39860  -0.40960   0.21480
C          C       0.44860  -0.31790   0.11320
H          H       0.46880  -0.27490   0.18200
C          C       0.31970  -0.56630   0.20990
H          H       0.38630  -0.56850   0.26080
H          H       0.28890  -0.62230   0.22490
H          H       0.29050  -0.51330   0.23660
S          S       0.02740   0.16110   0.25870
S          S       0.30730  -0.55700   0.03920
S          S       0.69270  -0.05700   0.46080
S          S       0.30730   1.05700   0.53920
C          C       1.07290   0.62450   0.37030
H          H       1.06250   0.56250   0.39680
H          H       1.12790   0.62480   0.34060
H          H       1.08350   0.66610   0.44430
C          C       0.53750   0.20130   0.50520
C          C       0.56530   0.13650   0.60370
H          H       0.55440   0.14690   0.68410
C          C       0.60900   0.05700   0.58490
H          H       0.62810   0.01320   0.65280
C          C       0.62500   0.04040   0.46880
C          C       0.59370   0.10270   0.36710
H          H       0.60140   0.09040   0.28520
C          C       0.55140   0.18210   0.38680
H          H       0.53120   0.22510   0.31800
C          C       0.68030  -0.06630   0.29010
H          H       0.61370  -0.06850   0.23920
H          H       0.71110  -0.12230   0.27510
H          H       0.70950  -0.01330   0.26340
S          S       0.97260   0.66110   0.24130
Br         Br      1.07010   0.41280   0.15170
Br         Br      0.17160   0.65960   1.08740
Br         Br      0.15030   0.60080   0.72800
C          C       0.38250   0.61800   0.52650
H          H       0.34800   0.67180   0.52940
C          C       0.34900   0.53570   0.54950
H          H       0.29240   0.53330   0.57030
C          C       0.39730   0.45240   0.54280
C          C       0.48180   0.45650   0.51100
C          C       0.46930   0.62510   0.49800
C          C       0.50570   0.71070   0.47580
C          C       0.58670   0.71250   0.44250
H          H       0.61000   0.76990   0.42570
C          C       0.36300   0.36780   0.56800
C          C       0.27740   0.35670   0.60760
C          C       0.18860   0.37960   0.52560
H          H       0.18190   0.40120   0.44070
C          C       0.10950   0.37190   0.56380
H          H       0.04960   0.38770   0.50580
C          C       0.11910   0.34060   0.68900
C          C       0.20590   0.31230   0.76850
H          H       0.21200   0.28710   0.85140
C          C       0.28400   0.32040   0.72850
H          H       0.34310   0.30080   0.78460
C          C      -0.07290   0.37550   0.62970
H          H      -0.06250   0.43750   0.60320
H          H      -0.12790   0.37520   0.65940
H          H      -0.08350   0.33390   0.55570
C          C       0.46250   0.79870   0.49480
C          C       0.43470   0.86350   0.39630
H          H       0.44560   0.85310   0.31590
C          C       0.39100   0.94300   0.41510
H          H       0.37190   0.98680   0.34720
C          C       0.37500   0.95960   0.53120
C          C       0.40630   0.89730   0.63290
H          H       0.39860   0.90960   0.71480
C          C       0.44860   0.81790   0.61320
H          H       0.46880   0.77490   0.68200
C          C       0.31970   1.06630   0.70990
H          H       0.38630   1.06850   0.76080
H          H       0.28890   1.12230   0.72490
H          H       0.29050   1.01330   0.73660
S          S       0.02740   0.33890   0.75870
Br         Br     -0.07010   0.58720   0.84830
Br         Br      0.82840   0.34040  -0.08740
Br         Br      0.84970   0.39920   0.27200
C          C       0.61750   0.38200   0.47350
H          H       0.65200   0.32820   0.47060
C          C       0.65100   0.46430   0.45050
H          H       0.70760   0.46670   0.42970
C          C       0.60270   0.54760   0.45720
C          C       0.51820   0.54350   0.48900
C          C       0.53070   0.37490   0.50200
C          C       0.49430   0.28930   0.52420
C          C       0.41330   0.28750   0.55750
H          H       0.39000   0.23010   0.57430
C          C       0.63700   0.63220   0.43200
C          C       0.72260   0.64330   0.39240
C          C       0.81140   0.62040   0.47440
H          H       0.81810   0.59880   0.55930
C          C       0.89050   0.62810   0.43620
H          H       0.95040   0.61230   0.49420
C          C       0.88090   0.65940   0.31100
C          C       0.79410   0.68770   0.23150
H          H       0.78800   0.71290   0.14860
C          C       0.71600   0.67960   0.27150
H          H       0.65690   0.69920   0.21540
