data_crystal

_cell_length_a    14.30200
_cell_length_b    24.89880
_cell_length_c    28.60970
_cell_angle_alpha 90.00000
_cell_angle_beta  93.41000
_cell_angle_gamma 90.00000

_symmetry_space_group_name_Hall 'P 1'
_symmetry_space_group_name_H-M  'P 1'

loop_
_symmetry_equiv_pos_as_xyz
 'x,y,z'

loop_
_atom_site_label
_atom_site_type_symbol
_atom_site_fract_x
_atom_site_fract_y
_atom_site_fract_z
C          C       0.14090   0.01780   0.18130
C          C       0.08700   0.06930   0.16170
C          C       0.13660   0.11400   0.14810
H          H       0.20120   0.11520   0.15360
C          C       0.08950   0.15700   0.12650
H          H       0.12280   0.18700   0.11740
C          C       0.01700   0.18730   0.01870
H          H       0.04160   0.15510   0.03060
O          O       0.22490   0.01910   0.19700
C          C       0.30310   0.14180   0.81260
C          C       0.02150   0.26600   0.90860
C          C       0.04200   0.20560   0.97460
H          H       0.08820   0.18780   0.95910
C          C       0.09500   0.23930   0.88210
C          C       0.18800   0.23760   0.89850
H          H       0.20740   0.25390   0.92660
C          C       0.25150   0.21100   0.87190
H          H       0.31450   0.21530   0.88050
C          C       0.22750   0.17790   0.83280
C          C       0.13250   0.18440   0.81590
H          H       0.11350   0.17000   0.78690
C          C       0.06700   0.21170   0.84170
H          H       0.00390   0.21130   0.83150
O          O       0.38930   0.14600   0.81680
O          O       0.26380   0.11300   0.78010
Cd         Cd      0.17370   0.03770   0.76500
Cd         Cd      0.40170   0.07890   0.75380
O          O       0.41440   0.00070   0.70280
O          O       0.27520   0.03460   0.70650
H          H       0.41150   0.06310   0.25900
H          H       0.47480   0.02900   0.26500
O          O       0.41550   0.02940   0.26170
O          O       0.41830   0.01810   0.81140
C          C       0.02750   0.11750   0.69750
C          C       0.32200   0.20750   0.54140
C          C       0.49300   0.34480   0.61840
C          C       0.44300   0.38950   0.63190
H          H       0.37840   0.39070   0.62650
C          C       0.49000   0.43250   0.65360
H          H       0.45680   0.46250   0.66270
C          C       0.17150   0.01030   0.30270
C          C       0.23450   0.04680   0.33250
C          C       0.32750   0.03760   0.34800
H          H       0.35540   0.00490   0.34160
C          C       0.37900   0.07640   0.37270
H          H       0.44110   0.06990   0.38300
C          C       0.33750   0.12510   0.38190
C          C       0.24450   0.13490   0.36660
H          H       0.21690   0.16770   0.37260
C          C       0.19450   0.09540   0.34220
H          H       0.13220   0.10170   0.33230
C          C       0.30750   0.15740   0.47640
H          H       0.27500   0.12900   0.46190
C          C       0.28600   0.17280   0.52150
H          H       0.24080   0.15340   0.53640
C          C       0.23200   0.20610   0.61620
C          C       0.13900   0.20410   0.60110
H          H       0.11900   0.21900   0.57250
C          C       0.07500   0.17990   0.62880
H          H       0.01160   0.17980   0.61920
C          C       0.10500   0.15570   0.67070
C          C       0.19800   0.15840   0.68680
H          H       0.21860   0.14300   0.71520
C          C       0.25900   0.18470   0.65920
H          H       0.32110   0.18810   0.67010
C          C       0.40200   0.24160   0.52170
C          C       0.30950   0.23370   0.59040
C          C       0.36350   0.27480   0.61100
H          H       0.34880   0.28590   0.64070
C          C       0.45500   0.28270   0.54500
C          C       0.42400   0.22530   0.47670
C          C       0.37650   0.18380   0.45260
C          C       0.46550   0.19400   0.38670
H          H       0.47870   0.18380   0.35660
C          C       0.39200   0.16880   0.40690
C          C       0.49750   0.24900   0.45350
C          C       0.43850   0.30110   0.59090
O          O       0.05940   0.09300   0.73210
O          O       0.09660   0.04480   0.83140
H          H       0.12610   0.02740   0.85320
H          H       0.09420   0.07780   0.83900
O          O       0.44160   0.13250   0.69320
O          O       0.08180   0.98190   0.18860
Cd         Cd      0.32630   0.96230   0.23500
Cd         Cd      0.09830   0.92110   0.24620
O          O       0.05830   0.86750   0.30680
O          O       0.11070   0.85400   0.18320
O          O       0.23620   0.88700   0.21990
O          O       0.08560   0.99930   0.29720
O          O       0.22480   0.96540   0.29350
C          C       0.47250   0.88250   0.30250
C          C       0.17800   0.79250   0.45860
C          C       0.00700   0.65520   0.38160
C          C       0.05700   0.61050   0.36810
H          H       0.12170   0.60930   0.37350
C          C       0.01000   0.56750   0.34640
H          H       0.04320   0.53750   0.33730
C          C       0.32850   0.98970   0.69730
C          C       0.26550   0.95320   0.66750
C          C       0.17250   0.96240   0.65200
H          H       0.14460   0.99510   0.65840
C          C       0.12100   0.92360   0.62730
H          H       0.05890   0.93010   0.61700
C          C       0.16250   0.87490   0.61810
C          C       0.25550   0.86510   0.63340
H          H       0.28310   0.83230   0.62740
C          C       0.30550   0.90460   0.65780
H          H       0.36780   0.89830   0.66770
C          C       0.19250   0.84260   0.52360
H          H       0.22500   0.87100   0.53810
C          C       0.21400   0.82720   0.47850
H          H       0.25920   0.84660   0.46360
C          C       0.26800   0.79390   0.38380
C          C       0.36100   0.79590   0.39890
H          H       0.38110   0.78100   0.42750
C          C       0.42500   0.82010   0.37120
H          H       0.48840   0.82020   0.38080
C          C       0.39500   0.84430   0.32930
C          C       0.30200   0.84160   0.31320
H          H       0.28140   0.85700   0.28480
C          C       0.24100   0.81530   0.34080
H          H       0.17890   0.81190   0.32990
C          C       0.09800   0.75840   0.47830
C          C       0.19050   0.76630   0.40960
C          C       0.13650   0.72520   0.38900
H          H       0.15120   0.71410   0.35930
C          C       0.04500   0.71730   0.45500
C          C       0.07600   0.77470   0.52330
C          C       0.12350   0.81620   0.54740
C          C       0.03450   0.80600   0.61330
H          H       0.02130   0.81620   0.64340
C          C       0.10800   0.83120   0.59310
C          C       0.00250   0.75100   0.54650
C          C       0.06150   0.69890   0.40910
O          O       0.44060   0.90700   0.26790
O          O       0.40340   0.95520   0.16860
H          H       0.37390   0.97260   0.14680
H          H       0.40580   0.92220   0.16100
C          C       0.19690   0.85820   0.18740
C          C       0.47850   0.73400   0.09140
C          C       0.45800   0.79440   0.02540
H          H       0.41180   0.81220   0.04090
C          C       0.40500   0.76070   0.11790
C          C       0.31200   0.76240   0.10150
H          H       0.29260   0.74610   0.07340
C          C       0.24850   0.78900   0.12810
H          H       0.18550   0.78470   0.11950
C          C       0.27250   0.82210   0.16720
C          C       0.36750   0.81560   0.18410
H          H       0.38650   0.83000   0.21310
C          C       0.43300   0.78830   0.15830
H          H       0.49610   0.78870   0.16850
C          C       0.35910   0.98220   0.81870
C          C       0.41300   0.93070   0.83830
C          C       0.36350   0.88600   0.85190
H          H       0.29880   0.88480   0.84640
C          C       0.41050   0.84300   0.87350
H          H       0.37720   0.81300   0.88260
C          C       0.48300   0.81270   0.98130
H          H       0.45840   0.84490   0.96940
O          O       0.27510   0.98090   0.80300
H          H       0.08850   0.93690   0.74100
H          H       0.02520   0.97100   0.73500
O          O       0.08450   0.97060   0.73830
C          C       0.02750   0.38250   0.19750
C          C       0.32200   0.29250   0.04140
C          C       0.49300   0.15520   0.11840
C          C       0.44300   0.11050   0.13190
H          H       0.37830   0.10930   0.12650
C          C       0.49000   0.06750   0.15360
H          H       0.45680   0.03750   0.16270
C          C       0.28600   0.32720   0.02150
H          H       0.24080   0.34660   0.03640
C          C       0.23200   0.29390   0.11620
C          C       0.13900   0.29590   0.10110
H          H       0.11900   0.28100   0.07250
C          C       0.07500   0.32010   0.12880
H          H       0.01160   0.32020   0.11920
C          C       0.10500   0.34430   0.17070
C          C       0.19800   0.34160   0.18680
H          H       0.21860   0.35700   0.21520
C          C       0.25900   0.31530   0.15920
H          H       0.32110   0.31190   0.17010
C          C       0.40200   0.25840   0.02170
C          C       0.30950   0.26630   0.09040
C          C       0.36350   0.22520   0.11100
H          H       0.34880   0.21410   0.14070
C          C       0.45500   0.21730   0.04500
C          C       0.43850   0.19890   0.09090
O          O       0.05940   0.40700   0.23210
Cd         Cd      0.17370   0.46230   0.26500
H          H       0.08850   0.56310   0.24100
H          H       0.02520   0.52900   0.23500
O          O       0.09670   0.45520   0.33140
H          H       0.12610   0.47260   0.35320
H          H       0.09420   0.42220   0.33900
O          O       0.08450   0.52940   0.23830
O          O       0.26380   0.38700   0.28010
O          O       0.27510   0.51910   0.30300
O          O       0.27520   0.46540   0.20650
C          C       0.17150   0.48970   0.80270
C          C       0.23450   0.45320   0.83250
C          C       0.32750   0.46240   0.84800
H          H       0.35540   0.49510   0.84160
C          C       0.37900   0.42360   0.87270
H          H       0.44110   0.43010   0.88300
C          C       0.33750   0.37490   0.88190
C          C       0.24450   0.36510   0.86660
H          H       0.21690   0.33230   0.87260
C          C       0.19450   0.40460   0.84220
H          H       0.13220   0.39830   0.83230
C          C       0.30750   0.34260   0.97640
H          H       0.27500   0.37100   0.96190
C          C       0.42400   0.27470   0.97670
C          C       0.37650   0.31620   0.95260
C          C       0.46550   0.30600   0.88670
H          H       0.47870   0.31620   0.85660
C          C       0.39200   0.33120   0.90690
C          C       0.49750   0.25100   0.95350
O          O       0.08560   0.50070   0.79720
O          O       0.22480   0.53460   0.79350
Cd         Cd      0.32630   0.53770   0.73500
Cd         Cd      0.09830   0.57890   0.74620
O          O       0.44170   0.36750   0.19320
Cd         Cd      0.40170   0.42110   0.25380
O          O       0.38930   0.35400   0.31680
O          O       0.41440   0.49930   0.20280
O          O       0.41830   0.48190   0.31140
C          C       0.35910   0.51780   0.31870
C          C       0.19690   0.64180   0.68740
C          C       0.41300   0.56930   0.33830
C          C       0.36350   0.61400   0.35190
H          H       0.29880   0.61520   0.34640
C          C       0.41050   0.65700   0.37350
H          H       0.37720   0.68700   0.38260
C          C       0.47850   0.76600   0.59140
C          C       0.45800   0.70560   0.52540
H          H       0.41180   0.68780   0.54090
C          C       0.48300   0.68730   0.48130
H          H       0.45840   0.65510   0.46940
C          C       0.40500   0.73930   0.61790
C          C       0.31200   0.73760   0.60150
H          H       0.29260   0.75390   0.57340
C          C       0.24850   0.71100   0.62810
H          H       0.18550   0.71530   0.61950
C          C       0.27250   0.67790   0.66720
C          C       0.36750   0.68440   0.68410
H          H       0.38650   0.67000   0.71310
C          C       0.43300   0.71170   0.65830
H          H       0.49610   0.71130   0.66850
O          O       0.11070   0.64600   0.68320
O          O       0.23620   0.61300   0.71990
O          O       0.05830   0.63250   0.80680
O          O       0.08180   0.51810   0.68860
C          C       0.32850   0.51030   0.19730
C          C       0.26550   0.54680   0.16750
C          C       0.17250   0.53760   0.15200
H          H       0.14460   0.50490   0.15840
C          C       0.12100   0.57640   0.12730
H          H       0.05890   0.56990   0.11700
C          C       0.16250   0.62510   0.11810
C          C       0.25550   0.63490   0.13340
H          H       0.28310   0.66770   0.12740
C          C       0.30550   0.59540   0.15780
H          H       0.36780   0.60170   0.16770
C          C       0.19250   0.65740   0.02360
H          H       0.22500   0.62900   0.03810
C          C       0.07600   0.72530   0.02330
C          C       0.12350   0.68380   0.04740
C          C       0.03450   0.69400   0.11330
H          H       0.02130   0.68380   0.14340
C          C       0.10800   0.66880   0.09310
C          C       0.00250   0.74900   0.04650
C          C       0.47250   0.61750   0.80250
C          C       0.17800   0.70750   0.95860
C          C       0.00700   0.84480   0.88160
C          C       0.05700   0.88950   0.86810
H          H       0.12170   0.89070   0.87350
C          C       0.01000   0.93250   0.84640
H          H       0.04320   0.96250   0.83730
C          C       0.21400   0.67280   0.97850
H          H       0.25920   0.65340   0.96360
C          C       0.26800   0.70610   0.88380
C          C       0.36100   0.70410   0.89890
H          H       0.38110   0.71900   0.92750
C          C       0.42500   0.67990   0.87120
H          H       0.48840   0.67980   0.88080
C          C       0.39500   0.65570   0.82930
C          C       0.30200   0.65840   0.81320
H          H       0.28140   0.64300   0.78480
C          C       0.24100   0.68470   0.84080
H          H       0.17890   0.68810   0.82990
C          C       0.09800   0.74160   0.97830
C          C       0.19050   0.73370   0.90960
C          C       0.13650   0.77480   0.88900
H          H       0.15120   0.78590   0.85930
C          C       0.04500   0.78270   0.95500
C          C       0.06150   0.80110   0.90910
O          O       0.44060   0.59300   0.76790
H          H       0.41150   0.43690   0.75900
H          H       0.47480   0.47100   0.76500
O          O       0.40340   0.54480   0.66860
H          H       0.37390   0.52740   0.64680
H          H       0.40580   0.57780   0.66100
O          O       0.41550   0.47060   0.76170
O          O       0.22490   0.48090   0.69700
C          C       0.14090   0.48220   0.68130
C          C       0.30310   0.35820   0.31260
C          C       0.08700   0.43070   0.66170
C          C       0.13660   0.38600   0.64810
H          H       0.20120   0.38480   0.65360
C          C       0.08950   0.34300   0.62650
H          H       0.12280   0.31300   0.61740
C          C       0.02150   0.23400   0.40860
C          C       0.04200   0.29440   0.47460
H          H       0.08820   0.31220   0.45910
C          C       0.01700   0.31270   0.51870
H          H       0.04170   0.34490   0.53060
C          C       0.09500   0.26070   0.38210
C          C       0.18800   0.26240   0.39850
H          H       0.20740   0.24610   0.42660
C          C       0.25150   0.28900   0.37190
H          H       0.31450   0.28470   0.38050
C          C       0.22750   0.32210   0.33280
C          C       0.13250   0.31560   0.31590
H          H       0.11350   0.33000   0.28690
C          C       0.06700   0.28830   0.34170
H          H       0.00390   0.28870   0.33150
C          C       0.64090   0.01780   0.18130
C          C       0.58700   0.06930   0.16170
C          C       0.63660   0.11400   0.14810
H          H       0.70120   0.11520   0.15360
C          C       0.58950   0.15700   0.12650
H          H       0.62280   0.18700   0.11740
C          C       0.51700   0.18730   0.01870
H          H       0.54160   0.15510   0.03060
O          O       0.72490   0.01910   0.19700
C          C       0.80310   0.14180   0.81260
C          C       0.52150   0.26600   0.90860
C          C       0.54200   0.20560   0.97460
H          H       0.58820   0.18780   0.95910
C          C       0.59500   0.23930   0.88210
C          C       0.68800   0.23760   0.89850
H          H       0.70740   0.25390   0.92660
C          C       0.75150   0.21100   0.87190
H          H       0.81450   0.21530   0.88050
C          C       0.72750   0.17790   0.83280
C          C       0.63250   0.18440   0.81590
H          H       0.61350   0.17000   0.78690
C          C       0.56700   0.21170   0.84170
H          H       0.50390   0.21130   0.83150
O          O       0.88930   0.14600   0.81680
O          O       0.76380   0.11300   0.78010
Cd         Cd      0.67370   0.03770   0.76500
Cd         Cd      0.90170   0.07890   0.75380
O          O       0.91440   0.00070   0.70280
O          O       0.77520   0.03460   0.70650
H          H       0.91150   0.06310   0.25900
H          H       0.97480   0.02900   0.26500
O          O       0.91550   0.02940   0.26170
O          O       0.91830   0.01810   0.81140
C          C       0.52750   0.11750   0.69750
C          C       0.82200   0.20750   0.54140
C          C       0.99300   0.34480   0.61840
C          C       0.94300   0.38950   0.63190
H          H       0.87840   0.39070   0.62650
C          C       0.99000   0.43250   0.65360
H          H       0.95680   0.46250   0.66270
C          C       0.67150   0.01030   0.30270
C          C       0.73450   0.04680   0.33250
C          C       0.82750   0.03760   0.34800
H          H       0.85540   0.00490   0.34160
C          C       0.87900   0.07640   0.37270
H          H       0.94110   0.06990   0.38300
C          C       0.83750   0.12510   0.38190
C          C       0.74450   0.13490   0.36660
H          H       0.71690   0.16770   0.37260
C          C       0.69450   0.09540   0.34220
H          H       0.63220   0.10170   0.33230
C          C       0.80750   0.15740   0.47640
H          H       0.77500   0.12900   0.46190
C          C       0.78600   0.17280   0.52150
H          H       0.74080   0.15340   0.53640
C          C       0.73200   0.20610   0.61620
C          C       0.63900   0.20410   0.60110
H          H       0.61900   0.21900   0.57250
C          C       0.57500   0.17990   0.62880
H          H       0.51160   0.17980   0.61920
C          C       0.60500   0.15570   0.67070
C          C       0.69800   0.15840   0.68680
H          H       0.71860   0.14300   0.71520
C          C       0.75900   0.18470   0.65920
H          H       0.82110   0.18810   0.67010
C          C       0.90200   0.24160   0.52170
C          C       0.80950   0.23370   0.59040
C          C       0.86350   0.27480   0.61100
H          H       0.84880   0.28590   0.64070
C          C       0.95500   0.28270   0.54500
C          C       0.92400   0.22530   0.47670
C          C       0.87650   0.18380   0.45260
C          C       0.96550   0.19400   0.38670
H          H       0.97870   0.18380   0.35660
C          C       0.89200   0.16880   0.40690
C          C       0.99750   0.24900   0.45350
C          C       0.93850   0.30110   0.59090
O          O       0.55940   0.09300   0.73210
O          O       0.59660   0.04480   0.83140
H          H       0.62610   0.02740   0.85320
H          H       0.59420   0.07780   0.83900
O          O       0.94160   0.13250   0.69320
O          O       0.58180   0.98190   0.18860
Cd         Cd      0.82630   0.96230   0.23500
Cd         Cd      0.59830   0.92110   0.24620
O          O       0.55830   0.86750   0.30680
O          O       0.61070   0.85400   0.18320
O          O       0.73620   0.88700   0.21990
O          O       0.58560   0.99930   0.29720
O          O       0.72480   0.96540   0.29350
C          C       0.97250   0.88250   0.30250
C          C       0.67800   0.79250   0.45860
C          C       0.50700   0.65520   0.38160
C          C       0.55700   0.61050   0.36810
H          H       0.62170   0.60930   0.37350
C          C       0.51000   0.56750   0.34640
H          H       0.54320   0.53750   0.33730
C          C       0.82850   0.98970   0.69730
C          C       0.76550   0.95320   0.66750
C          C       0.67250   0.96240   0.65200
H          H       0.64460   0.99510   0.65840
C          C       0.62100   0.92360   0.62730
H          H       0.55890   0.93010   0.61700
C          C       0.66250   0.87490   0.61810
C          C       0.75550   0.86510   0.63340
H          H       0.78310   0.83230   0.62740
C          C       0.80550   0.90460   0.65780
H          H       0.86780   0.89830   0.66770
C          C       0.69250   0.84260   0.52360
H          H       0.72500   0.87100   0.53810
C          C       0.71400   0.82720   0.47850
H          H       0.75920   0.84660   0.46360
C          C       0.76800   0.79390   0.38380
C          C       0.86100   0.79590   0.39890
H          H       0.88110   0.78100   0.42750
C          C       0.92500   0.82010   0.37120
H          H       0.98840   0.82020   0.38080
C          C       0.89500   0.84430   0.32930
C          C       0.80200   0.84160   0.31320
H          H       0.78140   0.85700   0.28480
C          C       0.74100   0.81530   0.34080
H          H       0.67890   0.81190   0.32990
C          C       0.59800   0.75840   0.47830
C          C       0.69050   0.76630   0.40960
C          C       0.63650   0.72520   0.38900
H          H       0.65120   0.71410   0.35930
C          C       0.54500   0.71730   0.45500
C          C       0.57600   0.77470   0.52330
C          C       0.62350   0.81620   0.54740
C          C       0.53450   0.80600   0.61330
H          H       0.52130   0.81620   0.64340
C          C       0.60800   0.83120   0.59310
C          C       0.50250   0.75100   0.54650
C          C       0.56150   0.69890   0.40910
O          O       0.94060   0.90700   0.26790
O          O       0.90340   0.95520   0.16860
H          H       0.87390   0.97260   0.14680
H          H       0.90580   0.92220   0.16100
C          C       0.69690   0.85820   0.18740
C          C       0.97850   0.73400   0.09140
C          C       0.95800   0.79440   0.02540
H          H       0.91180   0.81220   0.04090
C          C       0.90500   0.76070   0.11790
C          C       0.81200   0.76240   0.10150
H          H       0.79260   0.74610   0.07340
C          C       0.74850   0.78900   0.12810
H          H       0.68550   0.78470   0.11950
C          C       0.77250   0.82210   0.16720
C          C       0.86750   0.81560   0.18410
H          H       0.88650   0.83000   0.21310
C          C       0.93300   0.78830   0.15830
H          H       0.99610   0.78870   0.16850
C          C       0.85910   0.98220   0.81870
C          C       0.91300   0.93070   0.83830
C          C       0.86350   0.88600   0.85190
H          H       0.79880   0.88480   0.84640
C          C       0.91050   0.84300   0.87350
H          H       0.87720   0.81300   0.88260
C          C       0.98300   0.81270   0.98130
H          H       0.95840   0.84490   0.96940
O          O       0.77510   0.98090   0.80300
H          H       0.58850   0.93690   0.74100
H          H       0.52520   0.97100   0.73500
O          O       0.58450   0.97060   0.73830
C          C       0.52750   0.38250   0.19750
C          C       0.82200   0.29250   0.04140
C          C       0.99300   0.15520   0.11840
C          C       0.94300   0.11050   0.13190
H          H       0.87830   0.10930   0.12650
C          C       0.99000   0.06750   0.15360
H          H       0.95680   0.03750   0.16270
C          C       0.78600   0.32720   0.02150
H          H       0.74080   0.34660   0.03640
C          C       0.73200   0.29390   0.11620
C          C       0.63900   0.29590   0.10110
H          H       0.61900   0.28100   0.07250
C          C       0.57500   0.32010   0.12880
H          H       0.51160   0.32020   0.11920
C          C       0.60500   0.34430   0.17070
C          C       0.69800   0.34160   0.18680
H          H       0.71860   0.35700   0.21520
C          C       0.75900   0.31530   0.15920
H          H       0.82110   0.31190   0.17010
C          C       0.90200   0.25840   0.02170
C          C       0.80950   0.26630   0.09040
C          C       0.86350   0.22520   0.11100
H          H       0.84880   0.21410   0.14070
C          C       0.95500   0.21730   0.04500
C          C       0.93850   0.19890   0.09090
O          O       0.55940   0.40700   0.23210
Cd         Cd      0.67370   0.46230   0.26500
H          H       0.58850   0.56310   0.24100
H          H       0.52520   0.52900   0.23500
O          O       0.59670   0.45520   0.33140
H          H       0.62610   0.47260   0.35320
H          H       0.59420   0.42220   0.33900
O          O       0.58450   0.52940   0.23830
O          O       0.76380   0.38700   0.28010
O          O       0.77510   0.51910   0.30300
O          O       0.77520   0.46540   0.20650
C          C       0.67150   0.48970   0.80270
C          C       0.73450   0.45320   0.83250
C          C       0.82750   0.46240   0.84800
H          H       0.85540   0.49510   0.84160
C          C       0.87900   0.42360   0.87270
H          H       0.94110   0.43010   0.88300
C          C       0.83750   0.37490   0.88190
C          C       0.74450   0.36510   0.86660
H          H       0.71690   0.33230   0.87260
C          C       0.69450   0.40460   0.84220
H          H       0.63220   0.39830   0.83230
C          C       0.80750   0.34260   0.97640
H          H       0.77500   0.37100   0.96190
C          C       0.92400   0.27470   0.97670
C          C       0.87650   0.31620   0.95260
C          C       0.96550   0.30600   0.88670
H          H       0.97870   0.31620   0.85660
C          C       0.89200   0.33120   0.90690
C          C       0.99750   0.25100   0.95350
O          O       0.58560   0.50070   0.79720
O          O       0.72480   0.53460   0.79350
Cd         Cd      0.82630   0.53770   0.73500
Cd         Cd      0.59830   0.57890   0.74620
O          O       0.94170   0.36750   0.19320
Cd         Cd      0.90170   0.42110   0.25380
O          O       0.88930   0.35400   0.31680
O          O       0.91440   0.49930   0.20280
O          O       0.91830   0.48190   0.31140
C          C       0.85910   0.51780   0.31870
C          C       0.69690   0.64180   0.68740
C          C       0.91300   0.56930   0.33830
C          C       0.86350   0.61400   0.35190
H          H       0.79880   0.61520   0.34640
C          C       0.91050   0.65700   0.37350
H          H       0.87720   0.68700   0.38260
C          C       0.97850   0.76600   0.59140
C          C       0.95800   0.70560   0.52540
H          H       0.91180   0.68780   0.54090
C          C       0.98300   0.68730   0.48130
H          H       0.95840   0.65510   0.46940
C          C       0.90500   0.73930   0.61790
C          C       0.81200   0.73760   0.60150
H          H       0.79260   0.75390   0.57340
C          C       0.74850   0.71100   0.62810
H          H       0.68550   0.71530   0.61950
C          C       0.77250   0.67790   0.66720
C          C       0.86750   0.68440   0.68410
H          H       0.88650   0.67000   0.71310
C          C       0.93300   0.71170   0.65830
H          H       0.99610   0.71130   0.66850
O          O       0.61070   0.64600   0.68320
O          O       0.73620   0.61300   0.71990
O          O       0.55830   0.63250   0.80680
O          O       0.58180   0.51810   0.68860
C          C       0.82850   0.51030   0.19730
C          C       0.76550   0.54680   0.16750
C          C       0.67250   0.53760   0.15200
H          H       0.64460   0.50490   0.15840
C          C       0.62100   0.57640   0.12730
H          H       0.55890   0.56990   0.11700
C          C       0.66250   0.62510   0.11810
C          C       0.75550   0.63490   0.13340
H          H       0.78310   0.66770   0.12740
C          C       0.80550   0.59540   0.15780
H          H       0.86780   0.60170   0.16770
C          C       0.69250   0.65740   0.02360
H          H       0.72500   0.62900   0.03810
C          C       0.57600   0.72530   0.02330
C          C       0.62350   0.68380   0.04740
C          C       0.53450   0.69400   0.11330
H          H       0.52130   0.68380   0.14340
C          C       0.60800   0.66880   0.09310
C          C       0.50250   0.74900   0.04650
C          C       0.97250   0.61750   0.80250
C          C       0.67800   0.70750   0.95860
C          C       0.50700   0.84480   0.88160
C          C       0.55700   0.88950   0.86810
H          H       0.62170   0.89070   0.87350
C          C       0.51000   0.93250   0.84640
H          H       0.54320   0.96250   0.83730
C          C       0.71400   0.67280   0.97850
H          H       0.75920   0.65340   0.96360
C          C       0.76800   0.70610   0.88380
C          C       0.86100   0.70410   0.89890
H          H       0.88110   0.71900   0.92750
C          C       0.92500   0.67990   0.87120
H          H       0.98840   0.67980   0.88080
C          C       0.89500   0.65570   0.82930
C          C       0.80200   0.65840   0.81320
H          H       0.78140   0.64300   0.78480
C          C       0.74100   0.68470   0.84080
H          H       0.67890   0.68810   0.82990
C          C       0.59800   0.74160   0.97830
C          C       0.69050   0.73370   0.90960
C          C       0.63650   0.77480   0.88900
H          H       0.65120   0.78590   0.85930
C          C       0.54500   0.78270   0.95500
C          C       0.56150   0.80110   0.90910
O          O       0.94060   0.59300   0.76790
H          H       0.91150   0.43690   0.75900
H          H       0.97480   0.47100   0.76500
O          O       0.90340   0.54480   0.66860
H          H       0.87390   0.52740   0.64680
H          H       0.90580   0.57780   0.66100
O          O       0.91550   0.47060   0.76170
O          O       0.72490   0.48090   0.69700
C          C       0.64090   0.48220   0.68130
C          C       0.80310   0.35820   0.31260
C          C       0.58700   0.43070   0.66170
C          C       0.63660   0.38600   0.64810
H          H       0.70120   0.38480   0.65360
C          C       0.58950   0.34300   0.62650
H          H       0.62280   0.31300   0.61740
C          C       0.52150   0.23400   0.40860
C          C       0.54200   0.29440   0.47460
H          H       0.58820   0.31220   0.45910
C          C       0.51700   0.31270   0.51870
H          H       0.54170   0.34490   0.53060
C          C       0.59500   0.26070   0.38210
C          C       0.68800   0.26240   0.39850
H          H       0.70740   0.24610   0.42660
C          C       0.75150   0.28900   0.37190
H          H       0.81450   0.28470   0.38050
C          C       0.72750   0.32210   0.33280
C          C       0.63250   0.31560   0.31590
H          H       0.61350   0.33000   0.28690
C          C       0.56700   0.28830   0.34170
H          H       0.50390   0.28870   0.33150
