data_crystal

_cell_length_a    34.38100
_cell_length_b    34.38100
_cell_length_c    34.38100
_cell_angle_alpha 90.00000
_cell_angle_beta  90.00000
_cell_angle_gamma 90.00000

_symmetry_space_group_name_Hall 'P 1'
_symmetry_space_group_name_H-M  'P 1'

loop_
_symmetry_equiv_pos_as_xyz
 'x,y,z'

loop_
_atom_site_label
_atom_site_type_symbol
_atom_site_fract_x
_atom_site_fract_y
_atom_site_fract_z
Zn         Zn      0.28280   0.28280   0.21720
O          O       0.25000   0.25000   0.25000
O          O       0.27250   0.27250   0.16130
C          C       0.25000   0.25000   0.10480
C          C       0.25000   0.25000   0.14370
C          C       0.22550   0.22550   0.08350
H          H       0.20860   0.20860   0.09620
C          C       0.22670   0.22670   0.04280
C          C       0.25000   0.25000   0.01920
C          C       0.20280   0.20280   0.02030
H          H       0.18590   0.18590   0.03310
O          O       0.22750   0.22750   0.16130
C          C       0.27330   0.27330   0.04280
C          C       0.27450   0.27450   0.08350
H          H       0.29140   0.29140   0.09620
C          C       0.29720   0.29720   0.02030
C          C       0.29720   0.29720   0.97970
C          C       0.27330   0.27330   0.95720
C          C       0.27450   0.27450   0.91650
C          C       0.25000   0.25000   0.89520
C          C       0.25000   0.25000   0.85630
O          O       0.22750   0.22750   0.83870
O          O       0.27250   0.27250   0.83870
C          C       0.22550   0.22550   0.91650
H          H       0.20860   0.20860   0.90380
C          C       0.22670   0.22670   0.95720
C          C       0.25000   0.25000   0.98080
C          C       0.20280   0.20280   0.97970
H          H       0.18590   0.18590   0.96690
H          H       0.29140   0.29140   0.90380
H          H       0.31410   0.31410   0.96690
H          H       0.31410   0.31410   0.03310
O          O       0.27250   0.33870   0.22750
O          O       0.22750   0.33870   0.27250
O          O       0.33870   0.27250   0.22750
O          O       0.33870   0.22750   0.27250
Zn         Zn      0.28280   0.21720   0.28280
Zn         Zn      0.21720   0.28280   0.28280
Zn         Zn      0.21720   0.21720   0.21720
Zn         Zn      0.21720   0.21720   0.78280
Zn         Zn      0.28280   0.28280   0.78280
O          O       0.27250   0.16130   0.27250
C          C       0.25000   0.10480   0.25000
C          C       0.25000   0.14370   0.25000
C          C       0.22550   0.08350   0.22550
H          H       0.20860   0.09620   0.20860
C          C       0.22670   0.04280   0.22670
C          C       0.25000   0.01920   0.25000
C          C       0.20280   0.02030   0.20280
H          H       0.18590   0.03310   0.18590
O          O       0.22750   0.16130   0.22750
C          C       0.27330   0.04280   0.27330
C          C       0.27450   0.08350   0.27450
H          H       0.29140   0.09620   0.29140
C          C       0.29720   0.02030   0.29720
C          C       0.29720   0.97970   0.29720
C          C       0.27330   0.95720   0.27330
C          C       0.27450   0.91650   0.27450
C          C       0.25000   0.89520   0.25000
C          C       0.25000   0.85630   0.25000
O          O       0.22750   0.83870   0.22750
O          O       0.27250   0.83870   0.27250
C          C       0.22550   0.91650   0.22550
H          H       0.20860   0.90380   0.20860
C          C       0.22670   0.95720   0.22670
C          C       0.25000   0.98080   0.25000
C          C       0.20280   0.97970   0.20280
H          H       0.18590   0.96690   0.18590
H          H       0.29140   0.90380   0.29140
H          H       0.31410   0.96690   0.31410
H          H       0.31410   0.03310   0.31410
O          O       0.27250   0.22750   0.33870
O          O       0.22750   0.27250   0.33870
O          O       0.16130   0.27250   0.27250
C          C       0.10480   0.25000   0.25000
C          C       0.14370   0.25000   0.25000
C          C       0.08350   0.22550   0.22550
H          H       0.09620   0.20860   0.20860
C          C       0.04280   0.22670   0.22670
C          C       0.01920   0.25000   0.25000
C          C       0.02030   0.20280   0.20280
H          H       0.03310   0.18590   0.18590
O          O       0.16130   0.22750   0.22750
C          C       0.04280   0.27330   0.27330
C          C       0.08350   0.27450   0.27450
H          H       0.09620   0.29140   0.29140
C          C       0.02030   0.29720   0.29720
C          C       0.97970   0.29720   0.29720
C          C       0.95720   0.27330   0.27330
C          C       0.91650   0.27450   0.27450
C          C       0.89520   0.25000   0.25000
C          C       0.85630   0.25000   0.25000
O          O       0.83870   0.22750   0.22750
O          O       0.83870   0.27250   0.27250
C          C       0.91650   0.22550   0.22550
H          H       0.90380   0.20860   0.20860
C          C       0.95720   0.22670   0.22670
C          C       0.98080   0.25000   0.25000
C          C       0.97970   0.20280   0.20280
H          H       0.96690   0.18590   0.18590
H          H       0.90380   0.29140   0.29140
H          H       0.96690   0.31410   0.31410
H          H       0.03310   0.31410   0.31410
Zn         Zn      0.21720   0.78280   0.21720
Zn         Zn      0.28280   0.78280   0.28280
Zn         Zn      0.78280   0.21720   0.21720
Zn         Zn      0.78280   0.28280   0.28280
Zn         Zn      0.71720   0.28280   0.21720
O          O       0.75000   0.25000   0.25000
C          C       0.75000   0.25000   0.10480
C          C       0.75000   0.25000   0.14370
C          C       0.77450   0.22550   0.08350
H          H       0.79140   0.20860   0.09620
C          C       0.77330   0.22670   0.04280
C          C       0.75000   0.25000   0.01920
C          C       0.79720   0.20280   0.02030
H          H       0.81410   0.18590   0.03310
O          O       0.77250   0.22750   0.16130
C          C       0.72670   0.27330   0.04280
C          C       0.72550   0.27450   0.08350
H          H       0.70860   0.29140   0.09620
C          C       0.70280   0.29720   0.02030
C          C       0.70280   0.29720   0.97970
O          O       0.66130   0.27250   0.22750
O          O       0.66130   0.22750   0.27250
Zn         Zn      0.71720   0.21720   0.28280
Zn         Zn      0.78280   0.21720   0.78280
Zn         Zn      0.71720   0.28280   0.78280
O          O       0.77250   0.27250   0.33870
O          O       0.72750   0.22750   0.33870
O          O       0.72750   0.16130   0.27250
C          C       0.75000   0.10480   0.25000
C          C       0.75000   0.14370   0.25000
C          C       0.77450   0.08350   0.22550
H          H       0.79140   0.09620   0.20860
C          C       0.77330   0.04280   0.22670
C          C       0.75000   0.01920   0.25000
C          C       0.79720   0.02030   0.20280
H          H       0.81410   0.03310   0.18590
O          O       0.77250   0.16130   0.22750
C          C       0.72670   0.04280   0.27330
C          C       0.72550   0.08350   0.27450
H          H       0.70860   0.09620   0.29140
C          C       0.70280   0.02030   0.29720
C          C       0.70280   0.97970   0.29720
C          C       0.72670   0.95720   0.27330
C          C       0.72550   0.91650   0.27450
C          C       0.75000   0.89520   0.25000
C          C       0.75000   0.85630   0.25000
O          O       0.77250   0.83870   0.22750
O          O       0.72750   0.83870   0.27250
C          C       0.77450   0.91650   0.22550
H          H       0.79140   0.90380   0.20860
C          C       0.77330   0.95720   0.22670
C          C       0.75000   0.98080   0.25000
C          C       0.79720   0.97970   0.20280
H          H       0.81410   0.96690   0.18590
H          H       0.70860   0.90380   0.29140
H          H       0.68590   0.96690   0.31410
H          H       0.68590   0.03310   0.31410
Zn         Zn      0.78280   0.78280   0.21720
Zn         Zn      0.71720   0.71720   0.21720
O          O       0.75000   0.75000   0.25000
O          O       0.72750   0.72750   0.16130
C          C       0.75000   0.75000   0.10480
C          C       0.75000   0.75000   0.14370
C          C       0.77450   0.77450   0.08350
H          H       0.79140   0.79140   0.09620
C          C       0.77330   0.77330   0.04280
C          C       0.75000   0.75000   0.01920
C          C       0.79720   0.79720   0.02030
H          H       0.81410   0.81410   0.03310
O          O       0.77250   0.77250   0.16130
C          C       0.72670   0.72670   0.04280
C          C       0.72550   0.72550   0.08350
H          H       0.70860   0.70860   0.09620
C          C       0.70280   0.70280   0.02030
C          C       0.70280   0.70280   0.97970
C          C       0.72670   0.72670   0.95720
C          C       0.72550   0.72550   0.91650
C          C       0.75000   0.75000   0.89520
C          C       0.75000   0.75000   0.85630
O          O       0.77250   0.77250   0.83870
O          O       0.72750   0.72750   0.83870
C          C       0.77450   0.77450   0.91650
H          H       0.79140   0.79140   0.90380
C          C       0.77330   0.77330   0.95720
C          C       0.75000   0.75000   0.98080
C          C       0.79720   0.79720   0.97970
H          H       0.81410   0.81410   0.96690
H          H       0.70860   0.70860   0.90380
H          H       0.68590   0.68590   0.96690
H          H       0.68590   0.68590   0.03310
O          O       0.72750   0.66130   0.22750
O          O       0.77250   0.66130   0.27250
O          O       0.66130   0.72750   0.22750
O          O       0.66130   0.77250   0.27250
Zn         Zn      0.78280   0.71720   0.28280
Zn         Zn      0.78280   0.78280   0.78280
Zn         Zn      0.71720   0.71720   0.78280
O          O       0.72750   0.77250   0.33870
O          O       0.77250   0.72750   0.33870
O          O       0.83870   0.72750   0.27250
C          C       0.89520   0.75000   0.25000
C          C       0.85630   0.75000   0.25000
C          C       0.91650   0.77450   0.22550
H          H       0.90380   0.79140   0.20860
C          C       0.95720   0.77330   0.22670
C          C       0.98080   0.75000   0.25000
C          C       0.97970   0.79720   0.20280
H          H       0.96690   0.81410   0.18590
O          O       0.83870   0.77250   0.22750
C          C       0.95720   0.72670   0.27330
C          C       0.91650   0.72550   0.27450
H          H       0.90380   0.70860   0.29140
C          C       0.97970   0.70280   0.29720
C          C       0.02030   0.70280   0.29720
C          C       0.04280   0.72670   0.27330
C          C       0.08350   0.72550   0.27450
C          C       0.10480   0.75000   0.25000
C          C       0.14370   0.75000   0.25000
O          O       0.16130   0.77250   0.22750
O          O       0.16130   0.72750   0.27250
C          C       0.08350   0.77450   0.22550
H          H       0.09620   0.79140   0.20860
C          C       0.04280   0.77330   0.22670
C          C       0.01920   0.75000   0.25000
C          C       0.02030   0.79720   0.20280
H          H       0.03310   0.81410   0.18590
H          H       0.09620   0.70860   0.29140
H          H       0.03310   0.68590   0.31410
H          H       0.96690   0.68590   0.31410
C          C       0.29720   0.70280   0.97970
Zn         Zn      0.21720   0.71720   0.28280
Zn         Zn      0.21720   0.71720   0.71720
O          O       0.25000   0.75000   0.75000
O          O       0.16130   0.72750   0.72750
C          C       0.10480   0.75000   0.75000
C          C       0.14370   0.75000   0.75000
C          C       0.08350   0.77450   0.77450
H          H       0.09620   0.79140   0.79140
C          C       0.04280   0.77330   0.77330
C          C       0.01920   0.75000   0.75000
C          C       0.02030   0.79720   0.79720
H          H       0.03310   0.81410   0.81410
O          O       0.16130   0.77250   0.77250
C          C       0.04280   0.72670   0.72670
C          C       0.08350   0.72550   0.72550
H          H       0.09620   0.70860   0.70860
C          C       0.02030   0.70280   0.70280
C          C       0.97970   0.70280   0.70280
C          C       0.95720   0.72670   0.72670
C          C       0.91650   0.72550   0.72550
C          C       0.89520   0.75000   0.75000
C          C       0.85630   0.75000   0.75000
O          O       0.83870   0.77250   0.77250
O          O       0.83870   0.72750   0.72750
C          C       0.91650   0.77450   0.77450
H          H       0.90380   0.79140   0.79140
C          C       0.95720   0.77330   0.77330
C          C       0.98080   0.75000   0.75000
C          C       0.97970   0.79720   0.79720
H          H       0.96690   0.81410   0.81410
H          H       0.90380   0.70860   0.70860
H          H       0.96690   0.68590   0.68590
H          H       0.03310   0.68590   0.68590
O          O       0.22750   0.72750   0.66130
O          O       0.27250   0.77250   0.66130
O          O       0.22750   0.66130   0.72750
O          O       0.27250   0.66130   0.77250
Zn         Zn      0.28280   0.71720   0.78280
Zn         Zn      0.28280   0.78280   0.71720
Zn         Zn      0.21720   0.78280   0.78280
Zn         Zn      0.78280   0.71720   0.71720
O          O       0.27250   0.72750   0.83870
C          C       0.25000   0.75000   0.89520
C          C       0.25000   0.75000   0.85630
C          C       0.22550   0.77450   0.91650
H          H       0.20860   0.79140   0.90380
C          C       0.22670   0.77330   0.95720
C          C       0.25000   0.75000   0.98080
C          C       0.20280   0.79720   0.97970
H          H       0.18590   0.81410   0.96690
O          O       0.22750   0.77250   0.83870
C          C       0.27330   0.72670   0.95720
C          C       0.27450   0.72550   0.91650
H          H       0.29140   0.70860   0.90380
C          C       0.29720   0.70280   0.02030
C          C       0.27330   0.72670   0.04280
C          C       0.27450   0.72550   0.08350
C          C       0.25000   0.75000   0.10480
C          C       0.25000   0.75000   0.14370
O          O       0.22750   0.77250   0.16130
O          O       0.27250   0.72750   0.16130
C          C       0.22550   0.77450   0.08350
H          H       0.20860   0.79140   0.09620
C          C       0.22670   0.77330   0.04280
C          C       0.25000   0.75000   0.01920
C          C       0.20280   0.79720   0.02030
H          H       0.18590   0.81410   0.03310
H          H       0.29140   0.70860   0.09620
H          H       0.31410   0.68590   0.03310
H          H       0.31410   0.68590   0.96690
O          O       0.33870   0.72750   0.77250
O          O       0.33870   0.77250   0.72750
O          O       0.27250   0.83870   0.72750
C          C       0.25000   0.89520   0.75000
C          C       0.25000   0.85630   0.75000
C          C       0.22550   0.91650   0.77450
H          H       0.20860   0.90380   0.79140
C          C       0.22670   0.95720   0.77330
C          C       0.25000   0.98080   0.75000
C          C       0.20280   0.97970   0.79720
H          H       0.18590   0.96690   0.81410
O          O       0.22750   0.83870   0.77250
C          C       0.27330   0.95720   0.72670
C          C       0.27450   0.91650   0.72550
H          H       0.29140   0.90380   0.70860
C          C       0.29720   0.97970   0.70280
C          C       0.29720   0.02030   0.70280
C          C       0.27330   0.04280   0.72670
C          C       0.27450   0.08350   0.72550
C          C       0.25000   0.10480   0.75000
C          C       0.25000   0.14370   0.75000
O          O       0.22750   0.16130   0.77250
O          O       0.27250   0.16130   0.72750
C          C       0.22550   0.08350   0.77450
H          H       0.20860   0.09620   0.79140
C          C       0.22670   0.04280   0.77330
C          C       0.25000   0.01920   0.75000
C          C       0.20280   0.02030   0.79720
H          H       0.18590   0.03310   0.81410
H          H       0.29140   0.09620   0.70860
H          H       0.31410   0.03310   0.68590
H          H       0.31410   0.96690   0.68590
Zn         Zn      0.28280   0.71720   0.21720
Zn         Zn      0.28280   0.21720   0.71720
Zn         Zn      0.71720   0.21720   0.71720
O          O       0.75000   0.25000   0.75000
O          O       0.72750   0.16130   0.72750
C          C       0.75000   0.10480   0.75000
C          C       0.75000   0.14370   0.75000
C          C       0.77450   0.08350   0.77450
H          H       0.79140   0.09620   0.79140
C          C       0.77330   0.04280   0.77330
C          C       0.75000   0.01920   0.75000
C          C       0.79720   0.02030   0.79720
H          H       0.81410   0.03310   0.81410
O          O       0.77250   0.16130   0.77250
C          C       0.72670   0.04280   0.72670
C          C       0.72550   0.08350   0.72550
H          H       0.70860   0.09620   0.70860
C          C       0.70280   0.02030   0.70280
C          C       0.70280   0.97970   0.70280
C          C       0.72670   0.95720   0.72670
C          C       0.72550   0.91650   0.72550
C          C       0.75000   0.89520   0.75000
C          C       0.75000   0.85630   0.75000
O          O       0.77250   0.83870   0.77250
O          O       0.72750   0.83870   0.72750
C          C       0.77450   0.91650   0.77450
H          H       0.79140   0.90380   0.79140
C          C       0.77330   0.95720   0.77330
C          C       0.75000   0.98080   0.75000
C          C       0.79720   0.97970   0.79720
H          H       0.81410   0.96690   0.81410
H          H       0.70860   0.90380   0.70860
H          H       0.68590   0.96690   0.68590
H          H       0.68590   0.03310   0.68590
O          O       0.66130   0.22750   0.72750
O          O       0.66130   0.27250   0.77250
O          O       0.72750   0.22750   0.66130
O          O       0.77250   0.27250   0.66130
Zn         Zn      0.78280   0.28280   0.71720
Zn         Zn      0.71720   0.78280   0.71720
O          O       0.83870   0.27250   0.72750
C          C       0.89520   0.25000   0.75000
C          C       0.85630   0.25000   0.75000
C          C       0.91650   0.22550   0.77450
H          H       0.90380   0.20860   0.79140
C          C       0.95720   0.22670   0.77330
C          C       0.98080   0.25000   0.75000
C          C       0.97970   0.20280   0.79720
H          H       0.96690   0.18590   0.81410
O          O       0.83870   0.22750   0.77250
C          C       0.95720   0.27330   0.72670
C          C       0.91650   0.27450   0.72550
H          H       0.90380   0.29140   0.70860
C          C       0.97970   0.29720   0.70280
C          C       0.02030   0.29720   0.70280
C          C       0.04280   0.27330   0.72670
C          C       0.08350   0.27450   0.72550
C          C       0.10480   0.25000   0.75000
C          C       0.14370   0.25000   0.75000
O          O       0.16130   0.22750   0.77250
O          O       0.16130   0.27250   0.72750
C          C       0.08350   0.22550   0.77450
H          H       0.09620   0.20860   0.79140
C          C       0.04280   0.22670   0.77330
C          C       0.01920   0.25000   0.75000
C          C       0.02030   0.20280   0.79720
H          H       0.03310   0.18590   0.81410
H          H       0.09620   0.29140   0.70860
H          H       0.03310   0.31410   0.68590
H          H       0.96690   0.31410   0.68590
O          O       0.77250   0.33870   0.72750
O          O       0.72750   0.33870   0.77250
Zn         Zn      0.21720   0.28280   0.71720
O          O       0.25000   0.25000   0.75000
O          O       0.33870   0.27250   0.77250
O          O       0.33870   0.22750   0.72750
O          O       0.27250   0.33870   0.77250
O          O       0.22750   0.33870   0.72750
O          O       0.22750   0.27250   0.66130
O          O       0.27250   0.22750   0.66130
O          O       0.75000   0.75000   0.75000
O          O       0.66130   0.72750   0.77250
O          O       0.66130   0.77250   0.72750
O          O       0.72750   0.66130   0.77250
O          O       0.77250   0.66130   0.72750
O          O       0.77250   0.72750   0.66130
O          O       0.72750   0.77250   0.66130
O          O       0.25000   0.75000   0.25000
O          O       0.22750   0.66130   0.27250
O          O       0.27250   0.66130   0.22750
O          O       0.22750   0.72750   0.33870
O          O       0.27250   0.77250   0.33870
O          O       0.33870   0.77250   0.27250
O          O       0.33870   0.72750   0.22750
C          C       0.25000   0.75000   0.60480
C          C       0.25000   0.75000   0.64370
C          C       0.22550   0.72550   0.58350
H          H       0.20860   0.70860   0.59620
C          C       0.22670   0.72670   0.54280
C          C       0.25000   0.75000   0.51920
C          C       0.20280   0.70280   0.52030
H          H       0.18590   0.68590   0.53310
C          C       0.27330   0.77330   0.54280
C          C       0.27450   0.77450   0.58350
H          H       0.29140   0.79140   0.59620
C          C       0.29720   0.79720   0.52030
C          C       0.29720   0.79720   0.47970
C          C       0.27330   0.77330   0.45720
C          C       0.27450   0.77450   0.41650
C          C       0.25000   0.75000   0.39520
C          C       0.25000   0.75000   0.35630
C          C       0.22550   0.72550   0.41650
H          H       0.20860   0.70860   0.40380
C          C       0.22670   0.72670   0.45720
C          C       0.25000   0.75000   0.48080
C          C       0.20280   0.70280   0.47970
H          H       0.18590   0.68590   0.46690
H          H       0.29140   0.79140   0.40380
H          H       0.31410   0.81410   0.46690
H          H       0.31410   0.81410   0.53310
C          C       0.25000   0.60480   0.75000
C          C       0.25000   0.64370   0.75000
C          C       0.22550   0.58350   0.72550
H          H       0.20860   0.59620   0.70860
C          C       0.22670   0.54280   0.72670
C          C       0.25000   0.51920   0.75000
C          C       0.20280   0.52030   0.70280
H          H       0.18590   0.53310   0.68590
C          C       0.27330   0.54280   0.77330
C          C       0.27450   0.58350   0.77450
H          H       0.29140   0.59620   0.79140
C          C       0.29720   0.52030   0.79720
C          C       0.29720   0.47970   0.79720
C          C       0.27330   0.45720   0.77330
C          C       0.27450   0.41650   0.77450
C          C       0.25000   0.39520   0.75000
C          C       0.25000   0.35630   0.75000
C          C       0.22550   0.41650   0.72550
H          H       0.20860   0.40380   0.70860
C          C       0.22670   0.45720   0.72670
C          C       0.25000   0.48080   0.75000
C          C       0.20280   0.47970   0.70280
H          H       0.18590   0.46690   0.68590
H          H       0.29140   0.40380   0.79140
H          H       0.31410   0.46690   0.81410
H          H       0.31410   0.53310   0.81410
C          C       0.75000   0.75000   0.60480
C          C       0.75000   0.75000   0.64370
C          C       0.77450   0.72550   0.58350
H          H       0.79140   0.70860   0.59620
C          C       0.77330   0.72670   0.54280
C          C       0.75000   0.75000   0.51920
C          C       0.79720   0.70280   0.52030
H          H       0.81410   0.68590   0.53310
C          C       0.72670   0.77330   0.54280
C          C       0.72550   0.77450   0.58350
H          H       0.70860   0.79140   0.59620
C          C       0.70280   0.79720   0.52030
C          C       0.70280   0.79720   0.47970
C          C       0.72670   0.77330   0.45720
C          C       0.72550   0.77450   0.41650
C          C       0.75000   0.75000   0.39520
C          C       0.75000   0.75000   0.35630
C          C       0.77450   0.72550   0.41650
H          H       0.79140   0.70860   0.40380
C          C       0.77330   0.72670   0.45720
C          C       0.75000   0.75000   0.48080
C          C       0.79720   0.70280   0.47970
H          H       0.81410   0.68590   0.46690
H          H       0.70860   0.79140   0.40380
H          H       0.68590   0.81410   0.46690
H          H       0.68590   0.81410   0.53310
C          C       0.75000   0.60480   0.75000
C          C       0.75000   0.64370   0.75000
C          C       0.77450   0.58350   0.72550
H          H       0.79140   0.59620   0.70860
C          C       0.77330   0.54280   0.72670
C          C       0.75000   0.51920   0.75000
C          C       0.79720   0.52030   0.70280
H          H       0.81410   0.53310   0.68590
C          C       0.72670   0.54280   0.77330
C          C       0.72550   0.58350   0.77450
H          H       0.70860   0.59620   0.79140
C          C       0.70280   0.52030   0.79720
C          C       0.70280   0.47970   0.79720
C          C       0.72670   0.45720   0.77330
C          C       0.72550   0.41650   0.77450
C          C       0.75000   0.39520   0.75000
C          C       0.75000   0.35630   0.75000
C          C       0.77450   0.41650   0.72550
H          H       0.79140   0.40380   0.70860
C          C       0.77330   0.45720   0.72670
C          C       0.75000   0.48080   0.75000
C          C       0.79720   0.47970   0.70280
H          H       0.81410   0.46690   0.68590
H          H       0.70860   0.40380   0.79140
H          H       0.68590   0.46690   0.81410
H          H       0.68590   0.53310   0.81410
C          C       0.75000   0.25000   0.60480
C          C       0.75000   0.25000   0.64370
C          C       0.77450   0.27450   0.58350
H          H       0.79140   0.29140   0.59620
C          C       0.77330   0.27330   0.54280
C          C       0.75000   0.25000   0.51920
C          C       0.79720   0.29720   0.52030
H          H       0.81410   0.31410   0.53310
C          C       0.72670   0.22670   0.54280
C          C       0.72550   0.22550   0.58350
H          H       0.70860   0.20860   0.59620
C          C       0.70280   0.20280   0.52030
C          C       0.70280   0.20280   0.47970
C          C       0.72670   0.22670   0.45720
C          C       0.72550   0.22550   0.41650
C          C       0.75000   0.25000   0.39520
C          C       0.75000   0.25000   0.35630
C          C       0.77450   0.27450   0.41650
H          H       0.79140   0.29140   0.40380
C          C       0.77330   0.27330   0.45720
C          C       0.75000   0.25000   0.48080
C          C       0.79720   0.29720   0.47970
H          H       0.81410   0.31410   0.46690
H          H       0.70860   0.20860   0.40380
H          H       0.68590   0.18590   0.46690
H          H       0.68590   0.18590   0.53310
C          C       0.25000   0.25000   0.60480
C          C       0.25000   0.25000   0.64370
C          C       0.22550   0.27450   0.58350
H          H       0.20860   0.29140   0.59620
C          C       0.22670   0.27330   0.54280
C          C       0.25000   0.25000   0.51920
C          C       0.20280   0.29720   0.52030
H          H       0.18590   0.31410   0.53310
C          C       0.27330   0.22670   0.54280
C          C       0.27450   0.22550   0.58350
H          H       0.29140   0.20860   0.59620
C          C       0.29720   0.20280   0.52030
C          C       0.29720   0.20280   0.47970
C          C       0.27330   0.22670   0.45720
C          C       0.27450   0.22550   0.41650
C          C       0.25000   0.25000   0.39520
C          C       0.25000   0.25000   0.35630
C          C       0.22550   0.27450   0.41650
H          H       0.20860   0.29140   0.40380
C          C       0.22670   0.27330   0.45720
C          C       0.25000   0.25000   0.48080
C          C       0.20280   0.29720   0.47970
H          H       0.18590   0.31410   0.46690
H          H       0.29140   0.20860   0.40380
H          H       0.31410   0.18590   0.46690
H          H       0.31410   0.18590   0.53310
C          C       0.25000   0.39520   0.25000
C          C       0.25000   0.35630   0.25000
C          C       0.22550   0.41650   0.27450
H          H       0.20860   0.40380   0.29140
C          C       0.22670   0.45720   0.27330
C          C       0.25000   0.48080   0.25000
C          C       0.20280   0.47970   0.29720
H          H       0.18590   0.46690   0.31410
C          C       0.27330   0.45720   0.22670
C          C       0.27450   0.41650   0.22550
H          H       0.29140   0.40380   0.20860
C          C       0.29720   0.47970   0.20280
C          C       0.29720   0.52030   0.20280
C          C       0.27330   0.54280   0.22670
C          C       0.27450   0.58350   0.22550
C          C       0.25000   0.60480   0.25000
C          C       0.25000   0.64370   0.25000
C          C       0.22550   0.58350   0.27450
H          H       0.20860   0.59620   0.29140
C          C       0.22670   0.54280   0.27330
C          C       0.25000   0.51920   0.25000
C          C       0.20280   0.52030   0.29720
H          H       0.18590   0.53310   0.31410
H          H       0.29140   0.59620   0.20860
H          H       0.31410   0.53310   0.18590
H          H       0.31410   0.46690   0.18590
C          C       0.75000   0.60480   0.25000
C          C       0.75000   0.64370   0.25000
C          C       0.77450   0.58350   0.27450
H          H       0.79140   0.59620   0.29140
C          C       0.77330   0.54280   0.27330
C          C       0.75000   0.51920   0.25000
C          C       0.79720   0.52030   0.29720
H          H       0.81410   0.53310   0.31410
C          C       0.72670   0.54280   0.22670
C          C       0.72550   0.58350   0.22550
H          H       0.70860   0.59620   0.20860
C          C       0.70280   0.52030   0.20280
C          C       0.70280   0.47970   0.20280
C          C       0.72670   0.45720   0.22670
C          C       0.72550   0.41650   0.22550
C          C       0.75000   0.39520   0.25000
C          C       0.75000   0.35630   0.25000
C          C       0.77450   0.41650   0.27450
H          H       0.79140   0.40380   0.29140
C          C       0.77330   0.45720   0.27330
C          C       0.75000   0.48080   0.25000
C          C       0.79720   0.47970   0.29720
H          H       0.81410   0.46690   0.31410
H          H       0.70860   0.40380   0.20860
H          H       0.68590   0.46690   0.18590
H          H       0.68590   0.53310   0.18590
C          C       0.60480   0.25000   0.75000
C          C       0.64370   0.25000   0.75000
C          C       0.58350   0.22550   0.72550
H          H       0.59620   0.20860   0.70860
C          C       0.54280   0.22670   0.72670
C          C       0.51920   0.25000   0.75000
C          C       0.52030   0.20280   0.70280
H          H       0.53310   0.18590   0.68590
C          C       0.54280   0.27330   0.77330
C          C       0.58350   0.27450   0.77450
H          H       0.59620   0.29140   0.79140
C          C       0.52030   0.29720   0.79720
C          C       0.47970   0.29720   0.79720
C          C       0.45720   0.27330   0.77330
C          C       0.41650   0.27450   0.77450
C          C       0.39520   0.25000   0.75000
C          C       0.35630   0.25000   0.75000
C          C       0.41650   0.22550   0.72550
H          H       0.40380   0.20860   0.70860
C          C       0.45720   0.22670   0.72670
C          C       0.48080   0.25000   0.75000
C          C       0.47970   0.20280   0.70280
H          H       0.46690   0.18590   0.68590
H          H       0.40380   0.29140   0.79140
H          H       0.46690   0.31410   0.81410
H          H       0.53310   0.31410   0.81410
C          C       0.39520   0.75000   0.75000
C          C       0.35630   0.75000   0.75000
C          C       0.41650   0.77450   0.72550
H          H       0.40380   0.79140   0.70860
C          C       0.45720   0.77330   0.72670
C          C       0.48080   0.75000   0.75000
C          C       0.47970   0.79720   0.70280
H          H       0.46690   0.81410   0.68590
C          C       0.45720   0.72670   0.77330
C          C       0.41650   0.72550   0.77450
H          H       0.40380   0.70860   0.79140
C          C       0.47970   0.70280   0.79720
C          C       0.52030   0.70280   0.79720
C          C       0.54280   0.72670   0.77330
C          C       0.58350   0.72550   0.77450
C          C       0.60480   0.75000   0.75000
C          C       0.64370   0.75000   0.75000
C          C       0.58350   0.77450   0.72550
H          H       0.59620   0.79140   0.70860
C          C       0.54280   0.77330   0.72670
C          C       0.51920   0.75000   0.75000
C          C       0.52030   0.79720   0.70280
H          H       0.53310   0.81410   0.68590
H          H       0.59620   0.70860   0.79140
H          H       0.53310   0.68590   0.81410
H          H       0.46690   0.68590   0.81410
C          C       0.60480   0.75000   0.25000
C          C       0.64370   0.75000   0.25000
C          C       0.58350   0.77450   0.27450
H          H       0.59620   0.79140   0.29140
C          C       0.54280   0.77330   0.27330
C          C       0.51920   0.75000   0.25000
C          C       0.52030   0.79720   0.29720
H          H       0.53310   0.81410   0.31410
C          C       0.54280   0.72670   0.22670
C          C       0.58350   0.72550   0.22550
H          H       0.59620   0.70860   0.20860
C          C       0.52030   0.70280   0.20280
C          C       0.47970   0.70280   0.20280
C          C       0.45720   0.72670   0.22670
C          C       0.41650   0.72550   0.22550
C          C       0.39520   0.75000   0.25000
C          C       0.35630   0.75000   0.25000
C          C       0.41650   0.77450   0.27450
H          H       0.40380   0.79140   0.29140
C          C       0.45720   0.77330   0.27330
C          C       0.48080   0.75000   0.25000
C          C       0.47970   0.79720   0.29720
H          H       0.46690   0.81410   0.31410
H          H       0.40380   0.70860   0.20860
H          H       0.46690   0.68590   0.18590
H          H       0.53310   0.68590   0.18590
C          C       0.60480   0.25000   0.25000
C          C       0.64370   0.25000   0.25000
C          C       0.58350   0.22550   0.27450
H          H       0.59620   0.20860   0.29140
C          C       0.54280   0.22670   0.27330
C          C       0.51920   0.25000   0.25000
C          C       0.52030   0.20280   0.29720
H          H       0.53310   0.18590   0.31410
C          C       0.54280   0.27330   0.22670
C          C       0.58350   0.27450   0.22550
H          H       0.59620   0.29140   0.20860
C          C       0.52030   0.29720   0.20280
C          C       0.47970   0.29720   0.20280
C          C       0.45720   0.27330   0.22670
C          C       0.41650   0.27450   0.22550
C          C       0.39520   0.25000   0.25000
C          C       0.35630   0.25000   0.25000
C          C       0.41650   0.22550   0.27450
H          H       0.40380   0.20860   0.29140
C          C       0.45720   0.22670   0.27330
C          C       0.48080   0.25000   0.25000
C          C       0.47970   0.20280   0.29720
H          H       0.46690   0.18590   0.31410
H          H       0.40380   0.29140   0.20860
H          H       0.46690   0.31410   0.18590
H          H       0.53310   0.31410   0.18590
Zn         Zn      0.71720   0.78280   0.28280
O          O       0.72750   0.27250   0.16130
C          C       0.72670   0.27330   0.95720
C          C       0.72550   0.27450   0.91650
C          C       0.75000   0.25000   0.89520
C          C       0.75000   0.25000   0.85630
O          O       0.77250   0.22750   0.83870
O          O       0.72750   0.27250   0.83870
C          C       0.77450   0.22550   0.91650
H          H       0.79140   0.20860   0.90380
C          C       0.77330   0.22670   0.95720
C          C       0.75000   0.25000   0.98080
C          C       0.79720   0.20280   0.97970
H          H       0.81410   0.18590   0.96690
H          H       0.70860   0.29140   0.90380
H          H       0.68590   0.31410   0.96690
H          H       0.68590   0.31410   0.03310
O          O       0.72750   0.33870   0.22750
O          O       0.77250   0.33870   0.27250
