data_crystal

_cell_length_a    19.65880
_cell_length_b    12.10980
_cell_length_c    14.62790
_cell_angle_alpha 109.75000
_cell_angle_beta  103.61000
_cell_angle_gamma 100.14000

_symmetry_space_group_name_Hall 'P 1'
_symmetry_space_group_name_H-M  'P 1'

loop_
_symmetry_equiv_pos_as_xyz
 'x,y,z'

loop_
_atom_site_label
_atom_site_type_symbol
_atom_site_fract_x
_atom_site_fract_y
_atom_site_fract_z
Tb         Tb      0.38010   0.02130   0.99530
O          O       0.47620   0.20760   0.05180
H          H       0.47550   0.24700   0.01400
H          H       0.01750   0.19900   0.07100
O          O       0.32660   0.89430   0.07460
H          H       0.28700   0.90800   0.07900
H          H       0.31150   0.82200   0.03000
O          O       0.35620   0.15400   0.13690
O          O       0.23990   0.06840   0.11080
O          O       0.29180   0.68160   0.91050
O          O       0.48220   0.01620   0.10750
O          O       0.09100   0.98480   0.15450
C          C       0.25660   0.20050   0.31680
H          H       0.21740   0.12800   0.28020
C          C       0.30690   0.23230   0.27030
C          C       0.36340   0.34040   0.32260
H          H       0.39810   0.36020   0.29080
C          C       0.42500   0.53570   0.47470
H          H       0.45780   0.56030   0.44220
C          C       0.43080   0.60970   0.57040
H          H       0.46870   0.68420   0.60450
C          C       0.38460   0.65790   0.71960
H          H       0.42120   0.73400   0.75400
C          C       0.33520   0.62630   0.76630
C          C       0.28060   0.51490   0.71600
H          H       0.24670   0.49420   0.74830
C          C       0.21970   0.31920   0.56430
H          H       0.18600   0.29610   0.59610
C          C       0.21410   0.24410   0.46900
H          H       0.17670   0.16900   0.43510
C          C       0.26400   0.27560   0.41750
C          C       0.32030   0.38720   0.46970
C          C       0.36990   0.41970   0.42060
C          C       0.38140   0.57950   0.62240
C          C       0.32610   0.46530   0.57060
C          C       0.27560   0.43350   0.61850
C          C       0.30040   0.14640   0.16460
C          C       0.33600   0.71350   0.86970
C          C       0.02190   0.00050   0.26800
C          C       0.46810   0.04520   0.30210
H          H       0.43690   0.07490   0.26200
C          C       0.45910   0.04710   0.39420
C          C       0.00460   0.00040   0.45270
C          C       0.05940   0.95440   0.41860
C          C       0.06740   0.95620   0.32640
H          H       0.10460   0.92670   0.30330
C          C       0.03200   0.00050   0.16940
C          C       0.40590   0.09720   0.43360
H          H       0.37740   0.13400   0.39730
C          C       0.10480   0.90620   0.47920
H          H       0.14260   0.87680   0.45780
O          O       0.32970   0.16240   0.93770
C          C       0.33580   0.26860   0.97060
H          H       0.35690   0.31400   0.04240
N          N       0.31410   0.32900   0.91070
C          C       0.32760   0.45760   0.95220
H          H       0.34230   0.48840   0.02710
H          H       0.28310   0.47890   0.92670
H          H       0.36650   0.49460   0.93140
C          C       0.28780   0.25910   0.80040
H          H       0.27880   0.17170   0.78600
H          H       0.32440   0.28340   0.77040
H          H       0.24220   0.27500   0.77060
Tb         Tb      0.11980   0.97870   0.00470
O          O       0.02380   0.79240   0.94820
H          H       0.02450   0.75300   0.98600
H          H       0.48250   0.80100   0.92900
O          O       0.17340   0.10570   0.92540
H          H       0.21300   0.09200   0.92100
H          H       0.18850   0.17800   0.97000
O          O       0.14380   0.84600   0.86310
O          O       0.26010   0.93160   0.88920
O          O       0.11530   0.18210   0.09010
O          O       0.38470   0.81790   0.90990
O          O       0.20820   0.31840   0.08950
O          O       0.01780   0.98380   0.89250
O          O       0.40900   0.01520   0.84550
C          C       0.24340   0.79950   0.68320
H          H       0.28260   0.87200   0.71980
C          C       0.19310   0.76770   0.72970
C          C       0.13660   0.65960   0.67740
H          H       0.10190   0.63980   0.70920
C          C       0.07500   0.46430   0.52530
H          H       0.04210   0.43970   0.55780
C          C       0.06920   0.39030   0.42960
H          H       0.03130   0.31580   0.39550
C          C       0.11540   0.34210   0.28040
H          H       0.07890   0.26600   0.24600
C          C       0.16480   0.37370   0.23370
C          C       0.21940   0.48510   0.28400
H          H       0.25340   0.50580   0.25170
C          C       0.28030   0.68080   0.43570
H          H       0.31400   0.70390   0.40390
C          C       0.28590   0.75590   0.53100
H          H       0.32340   0.83100   0.56490
C          C       0.23610   0.72440   0.58250
C          C       0.17970   0.61280   0.53030
C          C       0.13010   0.58030   0.57940
C          C       0.11870   0.42050   0.37760
C          C       0.17390   0.53470   0.42940
C          C       0.22450   0.56650   0.38150
C          C       0.19960   0.85360   0.83540
C          C       0.16400   0.28650   0.13030
C          C       0.47810   0.99950   0.73200
C          C       0.03190   0.95480   0.69790
H          H       0.06310   0.92510   0.73800
C          C       0.04090   0.95290   0.60580
C          C       0.49540   0.99960   0.54730
C          C       0.44060   0.04560   0.58140
C          C       0.43260   0.04380   0.67360
H          H       0.39550   0.07330   0.69670
C          C       0.46800   0.99950   0.83060
C          C       0.09410   0.90280   0.56640
H          H       0.12260   0.86600   0.60270
C          C       0.39520   0.09380   0.52080
H          H       0.35740   0.12320   0.54220
O          O       0.17030   0.83760   0.06230
C          C       0.16420   0.73140   0.02940
H          H       0.14310   0.68600   0.95760
N          N       0.18590   0.67100   0.08930
C          C       0.17240   0.54240   0.04780
H          H       0.15770   0.51160   0.97290
H          H       0.21700   0.52110   0.07330
H          H       0.13350   0.50540   0.06860
C          C       0.21220   0.74090   0.19960
H          H       0.22120   0.82830   0.21400
H          H       0.17560   0.71660   0.22960
H          H       0.25770   0.72500   0.22940
Tb         Tb      0.88010   0.02130   0.99530
O          O       0.97620   0.20760   0.05180
H          H       0.97550   0.24700   0.01400
H          H       0.51750   0.19900   0.07100
O          O       0.82660   0.89430   0.07460
H          H       0.78700   0.90800   0.07900
H          H       0.81150   0.82200   0.03000
O          O       0.85620   0.15400   0.13690
O          O       0.73990   0.06840   0.11080
O          O       0.79180   0.68160   0.91050
O          O       0.98220   0.01620   0.10750
O          O       0.59100   0.98480   0.15450
C          C       0.75670   0.20050   0.31680
H          H       0.71740   0.12800   0.28020
C          C       0.80690   0.23230   0.27030
C          C       0.86350   0.34040   0.32260
H          H       0.89810   0.36020   0.29080
C          C       0.92500   0.53570   0.47470
H          H       0.95780   0.56030   0.44220
C          C       0.93080   0.60970   0.57040
H          H       0.96870   0.68420   0.60450
C          C       0.88450   0.65790   0.71960
H          H       0.92120   0.73400   0.75400
C          C       0.83530   0.62630   0.76630
C          C       0.78060   0.51490   0.71600
H          H       0.74670   0.49420   0.74830
C          C       0.71970   0.31920   0.56430
H          H       0.68600   0.29610   0.59610
C          C       0.71410   0.24410   0.46900
H          H       0.67660   0.16900   0.43510
C          C       0.76400   0.27560   0.41750
C          C       0.82030   0.38720   0.46970
C          C       0.86990   0.41970   0.42060
C          C       0.88140   0.57950   0.62240
C          C       0.82610   0.46530   0.57060
C          C       0.77550   0.43350   0.61850
C          C       0.80040   0.14640   0.16460
C          C       0.83600   0.71350   0.86970
C          C       0.52190   0.00050   0.26800
C          C       0.96810   0.04520   0.30210
H          H       0.93690   0.07490   0.26200
C          C       0.95910   0.04710   0.39420
C          C       0.50460   0.00040   0.45270
C          C       0.55940   0.95440   0.41860
C          C       0.56740   0.95620   0.32640
H          H       0.60460   0.92670   0.30330
C          C       0.53200   0.00050   0.16940
C          C       0.90590   0.09720   0.43360
H          H       0.87740   0.13400   0.39730
C          C       0.60480   0.90620   0.47920
H          H       0.64260   0.87680   0.45780
O          O       0.82970   0.16240   0.93770
C          C       0.83580   0.26860   0.97060
H          H       0.85690   0.31400   0.04240
N          N       0.81410   0.32900   0.91070
C          C       0.82760   0.45760   0.95220
H          H       0.84230   0.48840   0.02710
H          H       0.78310   0.47890   0.92670
H          H       0.86650   0.49460   0.93140
C          C       0.78770   0.25910   0.80040
H          H       0.77890   0.17170   0.78600
H          H       0.82440   0.28340   0.77040
H          H       0.74220   0.27500   0.77060
Tb         Tb      0.61990   0.97870   0.00470
O          O       0.52380   0.79240   0.94820
H          H       0.52450   0.75300   0.98600
H          H       0.98250   0.80100   0.92900
O          O       0.67340   0.10570   0.92540
H          H       0.71300   0.09200   0.92100
H          H       0.68850   0.17800   0.97000
O          O       0.64380   0.84600   0.86310
O          O       0.76010   0.93160   0.88920
O          O       0.61530   0.18210   0.09010
O          O       0.88470   0.81790   0.90990
O          O       0.70820   0.31840   0.08950
O          O       0.51780   0.98380   0.89250
O          O       0.90900   0.01520   0.84550
C          C       0.74330   0.79950   0.68320
H          H       0.78260   0.87200   0.71980
C          C       0.69310   0.76770   0.72970
C          C       0.63650   0.65960   0.67740
H          H       0.60190   0.63980   0.70920
C          C       0.57490   0.46430   0.52530
H          H       0.54220   0.43970   0.55780
C          C       0.56920   0.39030   0.42960
H          H       0.53130   0.31580   0.39550
C          C       0.61550   0.34210   0.28040
H          H       0.57880   0.26600   0.24600
C          C       0.66470   0.37370   0.23370
C          C       0.71940   0.48510   0.28400
H          H       0.75330   0.50580   0.25170
C          C       0.78030   0.68080   0.43570
H          H       0.81400   0.70390   0.40390
C          C       0.78590   0.75590   0.53100
H          H       0.82340   0.83100   0.56490
C          C       0.73600   0.72440   0.58250
C          C       0.67970   0.61280   0.53030
C          C       0.63010   0.58030   0.57940
C          C       0.61870   0.42050   0.37760
C          C       0.67390   0.53470   0.42940
C          C       0.72450   0.56650   0.38150
C          C       0.69960   0.85360   0.83540
C          C       0.66400   0.28650   0.13030
C          C       0.97810   0.99950   0.73200
C          C       0.53190   0.95480   0.69790
H          H       0.56310   0.92510   0.73800
C          C       0.54090   0.95290   0.60580
C          C       0.99540   0.99960   0.54730
C          C       0.94060   0.04560   0.58140
C          C       0.93260   0.04380   0.67360
H          H       0.89550   0.07330   0.69670
C          C       0.96800   0.99950   0.83060
C          C       0.59410   0.90280   0.56640
H          H       0.62260   0.86600   0.60270
C          C       0.89520   0.09380   0.52080
H          H       0.85740   0.12320   0.54220
O          O       0.67030   0.83760   0.06230
C          C       0.66420   0.73140   0.02940
H          H       0.64310   0.68600   0.95760
N          N       0.68590   0.67100   0.08930
C          C       0.67240   0.54240   0.04780
H          H       0.65770   0.51160   0.97290
H          H       0.71690   0.52110   0.07330
H          H       0.63350   0.50540   0.06860
C          C       0.71230   0.74090   0.19960
H          H       0.72110   0.82830   0.21400
H          H       0.67560   0.71660   0.22960
H          H       0.75770   0.72500   0.22940
