data_crystal

_cell_length_a    11.07800
_cell_length_b    16.01200
_cell_length_c    23.80400
_cell_angle_alpha 90.00000
_cell_angle_beta  95.33000
_cell_angle_gamma 90.00000

_symmetry_space_group_name_Hall 'P 1'
_symmetry_space_group_name_H-M  'P 1'

loop_
_symmetry_equiv_pos_as_xyz
 'x,y,z'

loop_
_atom_site_label
_atom_site_type_symbol
_atom_site_fract_x
_atom_site_fract_y
_atom_site_fract_z
Zn         Zn      0.95270   0.48230   0.15300
Zn         Zn      0.15350   0.34210   0.24080
S          S       0.42960   0.29490   0.29090
O          O       0.34340   0.33160   0.24720
O          O       0.15610   0.33160   0.33080
O          O       0.17330   0.21000   0.24650
O          O       0.15260   0.33140   0.15740
O          O       0.07520   0.43840   0.10480
O          O       0.96360   0.34640   0.23470
O          O       0.85000   0.38600   0.15820
O          O       0.18010   0.46710   0.24690
O          O       0.03810   0.55190   0.20810
O          O       0.13140   0.05210   0.40340
O          O       0.19990   0.16040   0.36220
C          C       0.30100   0.49320   0.43810
H          H       0.23110   0.50490   0.41470
C          C       0.30800   0.42160   0.46570
H          H       0.24420   0.38400   0.46000
C          C       0.41030   0.39980   0.50410
C          C       0.49740   0.53930   0.48410
C          C       0.39860   0.55470   0.44290
C          C       0.39590   0.62940   0.41210
C          C       0.48740   0.68660   0.42490
H          H       0.48590   0.73590   0.40410
C          C       0.41800   0.32480   0.53290
C          C       0.32940   0.25620   0.52320
C          C       0.29750   0.22370   0.47020
H          H       0.32890   0.24720   0.43890
C          C       0.21800   0.15550   0.46300
C          C       0.16630   0.12370   0.50940
H          H       0.11160   0.07960   0.50480
C          C       0.19540   0.15680   0.56150
C          C       0.27700   0.22320   0.56830
H          H       0.29630   0.24560   0.60410
C          C       0.30000   0.64760   0.36480
C          C       0.25250   0.72680   0.35800
H          H       0.27620   0.76820   0.38410
C          C       0.16780   0.74560   0.31160
C          C       0.12940   0.68470   0.27550
H          H       0.06980   0.69640   0.24640
C          C       0.17650   0.60500   0.28070
C          C       0.26600   0.58720   0.32480
H          H       0.30260   0.53490   0.32710
C          C       0.12890   0.53490   0.24220
C          C       0.13610   0.37220   0.11180
C          C       0.88520   0.33200   0.19460
C          C       0.18440   0.12050   0.40440
C          C       0.55250   0.26480   0.26280
H          H       0.53170   0.22260   0.23490
H          H       0.60970   0.24240   0.29170
H          H       0.58800   0.31170   0.24540
C          C       0.49900   0.36200   0.33910
H          H       0.43950   0.38830   0.36010
H          H       0.54120   0.40450   0.31980
H          H       0.55610   0.33230   0.36440
Zn         Zn      0.84650   0.84210   0.25920
S          S       0.57040   0.79490   0.20910
O          O       0.65660   0.83160   0.25280
O          O       0.92480   0.93840   0.39520
O          O       0.15000   0.88600   0.34180
O          O       0.81990   0.96710   0.25310
O          O       0.96190   0.05190   0.29190
O          O       0.86860   0.55210   0.09660
O          O       0.80010   0.66040   0.13780
C          C       0.82350   0.10500   0.21930
C          C       0.73400   0.08720   0.17520
H          H       0.69740   0.03490   0.17290
C          C       0.87110   0.03490   0.25780
C          C       0.86390   0.87220   0.38820
C          C       0.11480   0.83200   0.30540
C          C       0.81560   0.62050   0.09560
C          C       0.44750   0.76480   0.23720
H          H       0.46830   0.72260   0.26510
H          H       0.39030   0.74240   0.20830
H          H       0.41200   0.81170   0.25460
C          C       0.50100   0.86200   0.16090
H          H       0.56050   0.88830   0.13990
H          H       0.45880   0.90450   0.18020
H          H       0.44390   0.83230   0.13560
Zn         Zn      0.04730   0.51770   0.84700
Zn         Zn      0.84650   0.65790   0.75920
S          S       0.57040   0.70510   0.70910
O          O       0.65660   0.66840   0.75280
O          O       0.84390   0.66840   0.66920
O          O       0.82670   0.79000   0.75350
O          O       0.84740   0.66860   0.84260
O          O       0.92480   0.56160   0.89520
O          O       0.03640   0.65360   0.76530
O          O       0.15000   0.61400   0.84180
O          O       0.81990   0.53290   0.75310
O          O       0.96190   0.44810   0.79190
O          O       0.86860   0.94790   0.59660
O          O       0.80010   0.83960   0.63780
C          C       0.69900   0.50680   0.56190
H          H       0.76890   0.49510   0.58530
C          C       0.69200   0.57840   0.53430
H          H       0.75580   0.61600   0.54000
C          C       0.58970   0.60020   0.49590
C          C       0.50260   0.46070   0.51590
C          C       0.60140   0.44530   0.55710
C          C       0.60410   0.37060   0.58790
C          C       0.51260   0.31340   0.57510
H          H       0.51410   0.26410   0.59590
C          C       0.58200   0.67520   0.46710
C          C       0.67060   0.74380   0.47680
C          C       0.70250   0.77630   0.52980
H          H       0.67110   0.75280   0.56110
C          C       0.78200   0.84450   0.53700
C          C       0.83370   0.87630   0.49060
H          H       0.88840   0.92040   0.49520
C          C       0.80460   0.84320   0.43850
C          C       0.72300   0.77680   0.43170
H          H       0.70370   0.75440   0.39590
C          C       0.70000   0.35240   0.63520
C          C       0.74750   0.27320   0.64200
H          H       0.72380   0.23180   0.61590
C          C       0.83220   0.25440   0.68840
C          C       0.87060   0.31530   0.72450
H          H       0.93020   0.30360   0.75360
C          C       0.82350   0.39500   0.71930
C          C       0.73400   0.41280   0.67520
H          H       0.69740   0.46510   0.67290
C          C       0.87110   0.46510   0.75780
C          C       0.86390   0.62780   0.88820
C          C       0.11480   0.66800   0.80540
C          C       0.81560   0.87950   0.59560
C          C       0.44750   0.73520   0.73720
H          H       0.46830   0.77740   0.76510
H          H       0.39030   0.75760   0.70830
H          H       0.41200   0.68830   0.75460
C          C       0.50100   0.63800   0.66090
H          H       0.56050   0.61170   0.63990
H          H       0.45880   0.59550   0.68020
H          H       0.44390   0.66770   0.63560
Zn         Zn      0.95270   0.01770   0.65300
Zn         Zn      0.15350   0.15790   0.74080
S          S       0.42960   0.20510   0.79090
O          O       0.34340   0.16840   0.74720
O          O       0.15610   0.16840   0.83080
O          O       0.17330   0.29000   0.74650
O          O       0.15260   0.16860   0.65740
O          O       0.07520   0.06160   0.60480
O          O       0.96360   0.15360   0.73470
O          O       0.85000   0.11400   0.65820
O          O       0.18010   0.03290   0.74690
O          O       0.03810   0.94810   0.70810
O          O       0.13140   0.44790   0.90340
O          O       0.19990   0.33960   0.86220
C          C       0.30100   0.00680   0.93810
H          H       0.23110   0.99510   0.91470
C          C       0.30800   0.07840   0.96570
H          H       0.24420   0.11600   0.96000
C          C       0.41030   0.10020   0.00410
C          C       0.49740   0.96070   0.98410
C          C       0.39860   0.94530   0.94290
C          C       0.39590   0.87060   0.91210
C          C       0.48740   0.81340   0.92490
H          H       0.48590   0.76410   0.90410
C          C       0.41800   0.17520   0.03290
C          C       0.32940   0.24380   0.02320
C          C       0.29750   0.27630   0.97020
H          H       0.32890   0.25280   0.93890
C          C       0.21800   0.34450   0.96300
C          C       0.16630   0.37630   0.00940
H          H       0.11160   0.42040   0.00480
C          C       0.19540   0.34320   0.06150
C          C       0.27700   0.27680   0.06830
H          H       0.29630   0.25440   0.10410
C          C       0.30000   0.85240   0.86480
C          C       0.25250   0.77320   0.85800
H          H       0.27620   0.73180   0.88410
C          C       0.16780   0.75440   0.81160
C          C       0.12940   0.81530   0.77550
H          H       0.06980   0.80360   0.74640
C          C       0.17650   0.89500   0.78070
C          C       0.26600   0.91280   0.82480
H          H       0.30260   0.96510   0.82710
C          C       0.12890   0.96510   0.74220
C          C       0.13610   0.12780   0.61180
C          C       0.88520   0.16800   0.69460
C          C       0.18440   0.37950   0.90440
C          C       0.55250   0.23520   0.76280
H          H       0.53170   0.27740   0.73490
H          H       0.60970   0.25760   0.79170
H          H       0.58800   0.18830   0.74540
C          C       0.49900   0.13800   0.83910
H          H       0.43950   0.11170   0.86010
H          H       0.54120   0.09550   0.81980
H          H       0.55610   0.16770   0.86440
Zn         Zn      0.04730   0.98230   0.34700
O          O       0.84390   0.83160   0.16920
O          O       0.82670   0.71000   0.25350
O          O       0.84740   0.83140   0.34260
O          O       0.03640   0.84640   0.26530
C          C       0.69900   0.99320   0.06190
H          H       0.76890   0.00490   0.08530
C          C       0.69200   0.92160   0.03430
H          H       0.75580   0.88400   0.04000
C          C       0.58970   0.89980   0.99590
C          C       0.50260   0.03930   0.01590
C          C       0.60140   0.05470   0.05710
C          C       0.60410   0.12940   0.08790
C          C       0.51260   0.18660   0.07510
H          H       0.51410   0.23590   0.09590
C          C       0.58200   0.82480   0.96710
C          C       0.67060   0.75620   0.97680
C          C       0.70250   0.72370   0.02980
H          H       0.67110   0.74720   0.06110
C          C       0.78200   0.65550   0.03700
C          C       0.83370   0.62370   0.99060
H          H       0.88840   0.57960   0.99520
C          C       0.80460   0.65680   0.93850
C          C       0.72300   0.72320   0.93170
H          H       0.70370   0.74560   0.89590
C          C       0.70000   0.14760   0.13520
C          C       0.74750   0.22680   0.14200
H          H       0.72380   0.26820   0.11590
C          C       0.83220   0.24560   0.18840
C          C       0.87060   0.18470   0.22450
H          H       0.93020   0.19640   0.25360
H          H       0.14810   0.11390   0.84690
H          H       0.10200   0.31640   0.72860
H          H       0.24230   0.19660   0.84800
H          H       0.18580   0.30870   0.79110
H          H       0.84820   0.60570   0.65060
H          H       0.82250   0.80920   0.70900
H          H       0.75980   0.69960   0.65230
H          H       0.74270   0.80880   0.77130
H          H       0.14700   0.39400   0.34920
H          H       0.08030   0.29190   0.34140
H          H       0.09160   0.17970   0.22600
H          H       0.25280   0.19060   0.22530
H          H       0.84820   0.89430   0.15060
H          H       0.92240   0.79470   0.15860
H          H       0.82250   0.69080   0.20900
H          H       0.90460   0.67970   0.27730
