data_crystal

_cell_length_a    12.43500
_cell_length_b    14.58400
_cell_length_c    27.01800
_cell_angle_alpha 90.00000
_cell_angle_beta  107.87000
_cell_angle_gamma 90.00000

_symmetry_space_group_name_Hall 'P 1'
_symmetry_space_group_name_H-M  'P 1'

loop_
_symmetry_equiv_pos_as_xyz
 'x,y,z'

loop_
_atom_site_label
_atom_site_type_symbol
_atom_site_fract_x
_atom_site_fract_y
_atom_site_fract_z
Zn         Zn      0.02280   0.00400   0.87060
O          O       0.90610   0.96700   0.90220
C          C       0.84460   0.89880   0.89620
O          O       0.80850   0.85250   0.85630
C          C       0.80860   0.87070   0.94290
Zn         Zn      0.80990   0.86650   0.78350
C          C       0.72790   0.80110   0.93810
C          C       0.85600   0.91190   0.99070
C          C       0.69350   0.77360   0.98040
H          H       0.69670   0.77280   0.90610
H          H       0.91070   0.95700   0.99410
C          C       0.77890   0.88710   0.02450
C          C       0.60580   0.70080   0.97230
C          C       0.69780   0.81750   0.01850
C          C       0.82990   0.93140   0.07540
C          C       0.62270   0.62070   0.00380
C          C       0.50520   0.71070   0.93170
H          H       0.67560   0.80020   0.04710
O          O       0.79310   0.91560   0.11190
O          O       0.91170   0.98450   0.07920
C          C       0.53300   0.55370   0.99350
C          C       0.67940   0.60080   0.03480
C          C       0.41980   0.64690   0.92020
H          H       0.49550   0.76320   0.91120
C          C       0.43120   0.56740   0.95190
H          H       0.73890   0.64220   0.04130
C          C       0.69310   0.52520   0.06440
C          C       0.31780   0.66220   0.87400
H          H       0.76220   0.51470   0.08960
C          C       0.24970   0.74020   0.87140
C          C       0.28940   0.60070   0.83250
C          C       0.15500   0.75350   0.82900
H          H       0.26850   0.78280   0.89830
C          C       0.19550   0.61630   0.78900
H          H       0.33360   0.54870   0.83380
C          C       0.07820   0.83520   0.82830
C          C       0.12750   0.69280   0.78760
C          C       0.17040   0.54980   0.74410
O          O       0.11520   0.89390   0.86390
O          O       0.97630   0.84030   0.79360
H          H       0.06430   0.70310   0.75910
O          O       0.08280   0.56500   0.70650
O          O       0.23850   0.48620   0.74600
O          O       0.78360   0.72050   0.77680
O          O       0.78780   0.84080   0.69740
O          O       0.62700   0.88380   0.75990
Zn         Zn      0.01170   0.02360   0.13910
C          C       0.50150   0.47390   0.01620
C          C       0.34130   0.50240   0.94530
C          C       0.60320   0.46010   0.05780
C          C       0.41170   0.40680   0.00590
H          H       0.27230   0.51290   0.92010
C          C       0.35510   0.42670   0.97490
C          C       0.61460   0.38070   0.08950
C          C       0.42860   0.32680   0.03740
H          H       0.29560   0.38530   0.96840
C          C       0.71660   0.36540   0.13570
C          C       0.52920   0.31690   0.07800
C          C       0.34090   0.25400   0.02930
C          C       0.78480   0.28740   0.13830
C          C       0.74500   0.42690   0.17720
H          H       0.53900   0.26440   0.09840
C          C       0.30650   0.22650   0.07160
C          C       0.33670   0.21000   0.99120
C          C       0.87940   0.27410   0.18060
H          H       0.76600   0.24480   0.11140
C          C       0.83890   0.41120   0.22070
H          H       0.70090   0.47880   0.17590
H          H       0.33780   0.25470   0.10360
C          C       0.22580   0.15690   0.06680
C          C       0.25550   0.14050   0.98510
H          H       0.35880   0.22740   0.96260
Zn         Zn      0.03370   0.49020   0.64400
Zn         Zn      0.24670   0.35270   0.73100
C          C       0.95620   0.19240   0.18140
C          C       0.90690   0.33480   0.22210
C          C       0.86400   0.47770   0.26560
C          C       0.18990   0.12880   0.11350
C          C       0.17850   0.11570   0.01900
C          C       0.20460   0.09620   0.93420
O          O       0.12270   0.04310   0.93050
O          O       0.97370   0.05120   0.80800
O          O       0.81800   0.00000   0.76860
O          O       0.91920   0.13360   0.14580
O          O       0.05820   0.18720   0.21610
H          H       0.97010   0.32450   0.25060
O          O       0.95160   0.46260   0.30320
O          O       0.79590   0.54130   0.26370
O          O       0.12840   0.06050   0.10750
O          O       0.22600   0.17510   0.15340
H          H       0.12380   0.07060   0.01550
O          O       0.24140   0.11200   0.89770
Zn         Zn      0.22460   0.16110   0.22610
Zn         Zn      0.00070   0.53730   0.36570
Zn         Zn      0.78780   0.67490   0.27870
O          O       0.06070   0.97640   0.20160
O          O       0.21640   0.02750   0.24110
O          O       0.40740   0.14380   0.24980
O          O       0.25080   0.30700   0.23280
O          O       0.24670   0.18680   0.31230
O          O       0.15050   0.45320   0.61240
C          C       0.21190   0.38500   0.61830
O          O       0.24800   0.33870   0.65820
C          C       0.24790   0.35690   0.57160
C          C       0.32860   0.28730   0.57640
C          C       0.20060   0.39810   0.52380
C          C       0.36300   0.25980   0.53410
H          H       0.35990   0.25910   0.60840
H          H       0.14590   0.44320   0.52040
C          C       0.23340   0.37330   0.48030
C          C       0.45070   0.18700   0.54220
C          C       0.31460   0.30380   0.48630
C          C       0.18250   0.41760   0.42940
C          C       0.43380   0.10700   0.51080
C          C       0.55130   0.19690   0.58290
H          H       0.33670   0.28640   0.45780
O          O       0.21930   0.40180   0.39290
O          O       0.10060   0.47070   0.42570
C          C       0.52360   0.03990   0.52100
C          C       0.33300   0.08700   0.47000
C          C       0.63670   0.13310   0.59430
H          H       0.56110   0.24940   0.60330
C          C       0.62530   0.05360   0.56260
H          H       0.27350   0.12840   0.46350
C          C       0.31920   0.01140   0.44050
C          C       0.73870   0.14840   0.64050
H          H       0.25020   0.00090   0.41530
C          C       0.80690   0.22640   0.64310
C          C       0.76710   0.08690   0.68200
C          C       0.90150   0.23970   0.68550
H          H       0.78810   0.26900   0.61620
C          C       0.86100   0.10260   0.72550
H          H       0.72300   0.03490   0.68070
C          C       0.97830   0.32140   0.68630
C          C       0.92900   0.17900   0.72690
C          C       0.88610   0.03610   0.77040
O          O       0.94130   0.38020   0.65060
O          O       0.08030   0.32660   0.72090
H          H       0.99220   0.18930   0.75540
O          O       0.27290   0.20670   0.73770
O          O       0.26880   0.32700   0.81710
O          O       0.42950   0.37000   0.75460
C          C       0.51090   0.98770   0.48870
C          C       0.71520   0.01620   0.56920
C          C       0.40910   0.97390   0.44710
C          C       0.60060   0.92060   0.49890
H          H       0.78430   0.02660   0.59440
C          C       0.70150   0.94050   0.53970
C          C       0.39780   0.89450   0.41540
C          C       0.58370   0.84050   0.46750
H          H       0.76100   0.89910   0.54610
C          C       0.29570   0.87920   0.36920
C          C       0.48310   0.83070   0.42680
C          C       0.67140   0.76780   0.47560
C          C       0.22760   0.80120   0.36660
C          C       0.26740   0.94060   0.32770
H          H       0.47340   0.77820   0.40640
C          C       0.70580   0.74030   0.43330
C          C       0.71990   0.72380   0.52340
C          C       0.13290   0.78780   0.32420
H          H       0.24640   0.75860   0.39350
C          C       0.17340   0.92500   0.28410
H          H       0.31150   0.99260   0.32900
H          H       0.67460   0.76850   0.40120
C          C       0.78650   0.67070   0.43800
C          C       0.80100   0.65430   0.52940
H          H       0.69770   0.74120   0.55190
C          C       0.05610   0.70610   0.32340
C          C       0.10550   0.84860   0.28280
C          C       0.14830   0.99150   0.23930
C          C       0.82250   0.64250   0.39140
C          C       0.83390   0.62950   0.48590
C          C       0.85200   0.61000   0.58030
O          O       0.93380   0.55680   0.58400
O          O       0.09320   0.64740   0.35910
O          O       0.95420   0.70100   0.28880
H          H       0.04220   0.83830   0.25420
O          O       0.88400   0.57430   0.39730
O          O       0.78640   0.68890   0.35150
H          H       0.88860   0.58440   0.48930
O          O       0.81510   0.62580   0.61680
O          O       0.60490   0.65750   0.25500
O          O       0.76150   0.82080   0.27200
O          O       0.76570   0.70060   0.19250
H          H       0.61320   0.85840   0.73740
H          H       0.77960   0.70120   0.74240
H          H       0.81560   0.89260   0.68310
H          H       0.65130   0.90440   0.79750
H          H       0.85430   0.68540   0.80530
H          H       0.83540   0.77910   0.69340
H          H       0.56980   0.71520   0.25780
H          H       0.78320   0.84780   0.30610
H          H       0.75850   0.76520   0.18560
H          H       0.57490   0.63340   0.21450
H          H       0.81310   0.85030   0.24940
H          H       0.83980   0.67420   0.18300
H          H       0.42860   0.11440   0.22240
H          H       0.32930   0.32030   0.23850
H          H       0.32480   0.17970   0.33210
H          H       0.44850   0.21130   0.25790
H          H       0.19980   0.34060   0.19680
H          H       0.21900   0.25690   0.31730
H          H       0.25120   0.17980   0.70360
H          H       0.27600   0.26230   0.82400
H          H       0.46460   0.31240   0.75190
H          H       0.36270   0.19240   0.75750
H          H       0.34520   0.36230   0.84110
H          H       0.45170   0.42070   0.72920
