data_crystal

_cell_length_a    25.62340
_cell_length_b    16.36970
_cell_length_c    26.88500
_cell_angle_alpha 90.00000
_cell_angle_beta  118.41800
_cell_angle_gamma 90.00000

_symmetry_space_group_name_Hall 'P 1'
_symmetry_space_group_name_H-M  'P 1'

loop_
_symmetry_equiv_pos_as_xyz
 'x,y,z'

loop_
_atom_site_label
_atom_site_type_symbol
_atom_site_fract_x
_atom_site_fract_y
_atom_site_fract_z
Zn         Zn      0.93894   0.88017   0.25787
Zn         Zn      0.06106   0.88017   0.24213
Zn         Zn      0.06106   0.11983   0.74213
Zn         Zn      0.93894   0.11983   0.75787
Zn         Zn      0.03663   0.00880   0.32047
Zn         Zn      0.96337   0.00880   0.17953
Zn         Zn      0.96337   0.99120   0.67953
Zn         Zn      0.03663   0.99120   0.82047
Zn         Zn      0.73123   0.94417   0.74745
Zn         Zn      0.26877   0.94417   0.75255
Zn         Zn      0.26877   0.05583   0.25255
Zn         Zn      0.73123   0.05583   0.24745
Zn         Zn      0.17786   0.83771   0.53621
Zn         Zn      0.82214   0.83771   0.96379
Zn         Zn      0.82214   0.16229   0.46379
Zn         Zn      0.17786   0.16229   0.03621
O          O       0.00000   0.94440   0.25000
O          O       0.00000   0.05560   0.75000
O          O       0.10130   0.08330   0.33180
O          O       0.89870   0.08330   0.16820
O          O       0.89870   0.91670   0.66820
O          O       0.10130   0.91670   0.83180
N          N       0.89320   0.02880   0.77000
N          N       0.10680   0.02880   0.73000
N          N       0.10680   0.97120   0.23000
N          N       0.89320   0.97120   0.27000
N          N       0.06120   0.91690   0.37670
N          N       0.93880   0.91690   0.12330
N          N       0.93880   0.08310   0.62330
N          N       0.06120   0.08310   0.87670
O          O       0.11130   0.80700   0.30410
O          O       0.88870   0.80700   0.19590
O          O       0.88870   0.19300   0.69590
O          O       0.11130   0.19300   0.80410
O          O       0.10160   0.09760   0.41250
O          O       0.89840   0.09760   0.08750
O          O       0.89840   0.90240   0.58750
O          O       0.10160   0.90240   0.91250
N          N       0.81300   0.95500   0.75650
N          N       0.18700   0.95500   0.74350
N          N       0.18700   0.04500   0.24350
N          N       0.81300   0.04500   0.25650
N          N       0.96760   0.92080   0.81050
N          N       0.03240   0.92080   0.68950
N          N       0.03240   0.07920   0.18950
N          N       0.96760   0.07920   0.31050
N          N       0.12240   0.84390   0.45350
N          N       0.87760   0.84390   0.04650
N          N       0.87760   0.15610   0.54650
N          N       0.12240   0.15610   0.95350
C          C       0.91070   0.95010   0.78680
C          C       0.08930   0.95010   0.71320
C          C       0.08930   0.04990   0.21320
C          C       0.91070   0.04990   0.28680
O          O       0.15360   0.79070   0.25190
O          O       0.84640   0.79070   0.24810
O          O       0.84640   0.20930   0.74810
O          O       0.15360   0.20930   0.75190
N          N       0.99140   0.80920   0.32420
N          N       0.00860   0.80920   0.17580
N          N       0.00860   0.19080   0.67580
N          N       0.99140   0.19080   0.82420
O          O       0.70850   0.83210   0.71580
O          O       0.29150   0.83210   0.78420
O          O       0.29150   0.16790   0.28420
O          O       0.70850   0.16790   0.21580
C          C       0.86310   0.90390   0.77970
C          C       0.13690   0.90390   0.72030
C          C       0.13690   0.09610   0.22030
C          C       0.86310   0.09610   0.27970
N          N       0.92760   0.79350   0.82100
N          N       0.07240   0.79350   0.67900
N          N       0.07240   0.20650   0.17900
N          N       0.92760   0.20650   0.32100
O          O       0.21420   0.94410   0.56350
O          O       0.78580   0.94410   0.93650
O          O       0.78580   0.05590   0.43650
O          O       0.21420   0.05590   0.06350
C          C       0.83520   0.02690   0.75240
C          C       0.16480   0.02690   0.74760
C          C       0.16480   0.97310   0.24760
C          C       0.83520   0.97310   0.25240
H          H       0.81143   0.07304   0.73807
H          H       0.18857   0.07304   0.76193
H          H       0.18857   0.92696   0.26193
H          H       0.81143   0.92696   0.23807
C          C       0.10960   0.91420   0.42750
C          C       0.89040   0.91420   0.07250
C          C       0.89040   0.08580   0.57250
C          C       0.10960   0.08580   0.92750
H          H       0.13297   0.96015   0.44352
H          H       0.86703   0.96015   0.05648
H          H       0.86703   0.03985   0.55648
H          H       0.13297   0.03985   0.94352
C          C       0.04080   0.83970   0.36960
C          C       0.95920   0.83970   0.13040
C          C       0.95920   0.16030   0.63040
C          C       0.04080   0.16030   0.86960
C          C       0.35490   0.36890   0.48900
C          C       0.64510   0.36890   0.01100
C          C       0.64510   0.63110   0.51100
C          C       0.35490   0.63110   0.98900
C          C       0.35940   0.52130   0.47900
C          C       0.64060   0.52130   0.02100
C          C       0.64060   0.47870   0.52100
C          C       0.35940   0.47870   0.97900
O          O       0.21370   0.72830   0.55050
O          O       0.78630   0.72830   0.94950
O          O       0.78630   0.27170   0.44950
O          O       0.21370   0.27170   0.05050
O          O       0.75220   0.91640   0.82760
O          O       0.24780   0.91640   0.67240
O          O       0.24780   0.08360   0.17240
O          O       0.75220   0.08360   0.32760
H          H       0.77108   0.95712   0.85232
H          H       0.22892   0.95712   0.64768
H          H       0.22892   0.04288   0.14768
H          H       0.77108   0.04288   0.35232
H          H       0.77927   0.87623   0.84150
H          H       0.22073   0.87623   0.65850
H          H       0.22073   0.12377   0.15850
H          H       0.77927   0.12377   0.34150
O          O       0.70110   0.05820   0.74660
O          O       0.29890   0.05820   0.75340
O          O       0.29890   0.94180   0.25340
O          O       0.70110   0.94180   0.24660
C          C       0.07800   0.79370   0.41620
C          C       0.92200   0.79370   0.08380
C          C       0.92200   0.20630   0.58380
C          C       0.07800   0.20630   0.91620
C          C       0.29980   0.51770   0.43960
C          C       0.70020   0.51770   0.06040
C          C       0.70020   0.48230   0.56040
C          C       0.29980   0.48230   0.93960
N          N       0.82870   0.77080   0.79250
N          N       0.17130   0.77080   0.70750
N          N       0.17130   0.22920   0.20750
N          N       0.82870   0.22920   0.29250
H          H       0.79238   0.78434   0.77076
H          H       0.20762   0.78434   0.72924
H          H       0.20762   0.21566   0.22924
H          H       0.79238   0.21566   0.27076
C          C       0.53830   0.36900   0.61160
C          C       0.46170   0.36900   0.88840
C          C       0.46170   0.63100   0.38840
C          C       0.53830   0.63100   0.11160
O          O       0.11890   0.84410   0.56590
O          O       0.88110   0.84410   0.93410
O          O       0.88110   0.15590   0.43410
O          O       0.11890   0.15590   0.06590
H          H       0.12653   0.84434   0.60030
H          H       0.87347   0.84434   0.89970
H          H       0.87347   0.15566   0.39970
H          H       0.12653   0.15566   0.10030
H          H       0.08122   0.84487   0.54726
H          H       0.91878   0.84487   0.95274
H          H       0.91878   0.15513   0.45274
H          H       0.08122   0.15513   0.04726
C          C       0.45260   0.59520   0.53920
C          C       0.54740   0.59520   0.96080
C          C       0.54740   0.40480   0.46080
C          C       0.45260   0.40480   0.03920
H          H       0.47359   0.64408   0.55023
H          H       0.52641   0.64408   0.94977
H          H       0.52641   0.35592   0.44977
H          H       0.47359   0.35592   0.05023
C          C       0.47710   0.36850   0.57030
C          C       0.52290   0.36850   0.92970
C          C       0.52290   0.63150   0.42970
C          C       0.47710   0.63150   0.07030
C          C       0.44180   0.26300   0.70410
C          C       0.55820   0.26300   0.79590
C          C       0.55820   0.73700   0.29590
C          C       0.44180   0.73700   0.20410
C          C       0.15060   0.77810   0.29540
C          C       0.84940   0.77810   0.20460
C          C       0.84940   0.22190   0.70460
C          C       0.15060   0.22190   0.79540
C          C       0.87190   0.82250   0.79740
C          C       0.12810   0.82250   0.70260
C          C       0.12810   0.17750   0.20260
C          C       0.87190   0.17750   0.29740
C          C       0.29520   0.37570   0.45050
C          C       0.70480   0.37570   0.04950
C          C       0.70480   0.62430   0.54950
C          C       0.29520   0.62430   0.95050
C          C       0.12210   0.11370   0.38070
C          C       0.87790   0.11370   0.11930
C          C       0.87790   0.88630   0.61930
C          C       0.12210   0.88630   0.88070
C          C       0.54010   0.51700   0.61030
C          C       0.45990   0.51700   0.88970
C          C       0.45990   0.48300   0.38970
C          C       0.54010   0.48300   0.11030
C          C       0.38840   0.44460   0.50560
C          C       0.61160   0.44460   0.99440
C          C       0.61160   0.55540   0.49440
C          C       0.38840   0.55540   0.00560
C          C       0.38500   0.29650   0.51480
C          C       0.61500   0.29650   0.98520
C          C       0.61500   0.70350   0.48520
C          C       0.38500   0.70350   0.01480
H          H       0.36334   0.24813   0.50558
H          H       0.63666   0.24813   0.99442
H          H       0.63666   0.75187   0.49442
H          H       0.36334   0.75187   0.00558
C          C       0.56780   0.44370   0.63190
C          C       0.43220   0.44370   0.86810
C          C       0.43220   0.55630   0.36810
C          C       0.56780   0.55630   0.13190
H          H       0.60691   0.44362   0.66066
H          H       0.39309   0.44362   0.83934
H          H       0.39309   0.55638   0.33934
H          H       0.60691   0.55638   0.16066
C          C       0.24610   0.69890   0.33760
C          C       0.75390   0.69890   0.16240
C          C       0.75390   0.30110   0.66240
C          C       0.24610   0.30110   0.83760
H          H       0.25463   0.72349   0.31116
H          H       0.74537   0.72349   0.18884
H          H       0.74537   0.27651   0.68884
H          H       0.25463   0.27651   0.81116
O          O       0.67920   0.02370   0.66470
O          O       0.32080   0.02370   0.83530
O          O       0.32080   0.97630   0.33530
O          O       0.67920   0.97630   0.16470
C          C       0.97150   0.84450   0.82550
C          C       0.02850   0.84450   0.67450
C          C       0.02850   0.15550   0.17450
C          C       0.97150   0.15550   0.32550
H          H       0.00936   0.82182   0.84139
H          H       0.99065   0.82182   0.65861
H          H       0.99065   0.17818   0.15861
H          H       0.00936   0.17818   0.34139
C          C       0.44580   0.29240   0.55380
C          C       0.55420   0.29240   0.94620
C          C       0.55420   0.70760   0.44620
C          C       0.44580   0.70760   0.05380
H          H       0.46479   0.24288   0.56821
H          H       0.53521   0.24288   0.93179
H          H       0.53521   0.75712   0.43179
H          H       0.46479   0.75712   0.06821
C          C       0.48020   0.51990   0.56510
C          C       0.51980   0.51990   0.93490
C          C       0.51980   0.48010   0.43490
C          C       0.48020   0.48010   0.06510
C          C       0.44110   0.41600   0.70760
C          C       0.55890   0.41600   0.79240
C          C       0.55890   0.58400   0.29240
C          C       0.44110   0.58400   0.20760
C          C       0.28410   0.64130   0.37450
C          C       0.71590   0.64130   0.12550
C          C       0.71590   0.35870   0.62550
C          C       0.28410   0.35870   0.87450
H          H       0.32090   0.63251   0.37633
H          H       0.67910   0.63251   0.12367
H          H       0.67910   0.36749   0.62367
H          H       0.32090   0.36749   0.87633
C          C       0.20420   0.19540   0.45530
C          C       0.79580   0.19540   0.04470
C          C       0.79580   0.80460   0.54470
C          C       0.20420   0.80460   0.95530
H          H       0.19721   0.16775   0.48177
H          H       0.80279   0.16775   0.01823
H          H       0.80279   0.83225   0.51823
H          H       0.19721   0.83225   0.98177
C          C       0.47070   0.48940   0.72840
C          C       0.52930   0.48940   0.77160
C          C       0.52930   0.51060   0.27160
C          C       0.47070   0.51060   0.22840
H          H       0.45138   0.53861   0.71353
H          H       0.54862   0.53861   0.78647
H          H       0.54862   0.46139   0.28647
H          H       0.45138   0.46139   0.21353
C          C       0.27000   0.44800   0.42670
C          C       0.73000   0.44800   0.07330
C          C       0.73000   0.55200   0.57330
C          C       0.27000   0.55200   0.92670
H          H       0.22996   0.44877   0.40005
H          H       0.77004   0.44877   0.09995
H          H       0.77004   0.55123   0.59994
H          H       0.22996   0.55123   0.90006
C          C       0.57380   0.59380   0.63730
C          C       0.42620   0.59380   0.86270
C          C       0.42620   0.40620   0.36270
C          C       0.57380   0.40620   0.13730
C          C       0.39520   0.59400   0.49800
C          C       0.60480   0.59400   0.00200
C          C       0.60480   0.40600   0.50200
C          C       0.39520   0.40600   0.99800
H          H       0.37785   0.64332   0.48105
H          H       0.62215   0.64332   0.01895
H          H       0.62215   0.35668   0.51895
H          H       0.37785   0.35668   0.98105
C          C       0.17090   0.17630   0.39890
C          C       0.82910   0.17630   0.10110
C          C       0.82910   0.82370   0.60110
C          C       0.17090   0.82370   0.89890
C          C       0.57340   0.29320   0.63490
C          C       0.42660   0.29320   0.86510
C          C       0.42660   0.70680   0.36510
C          C       0.57340   0.70680   0.13490
C          C       0.24750   0.25420   0.47340
C          C       0.75250   0.25420   0.02660
C          C       0.75250   0.74580   0.52660
C          C       0.24750   0.74580   0.97340
H          H       0.27130   0.26368   0.51185
H          H       0.72871   0.26368   0.98815
H          H       0.72871   0.73632   0.48815
H          H       0.27130   0.73632   0.01185
C          C       0.19480   0.72020   0.34030
C          C       0.80520   0.72020   0.15970
C          C       0.80520   0.27980   0.65970
C          C       0.19480   0.27980   0.84030
O          O       0.25680   0.76670   0.63700
O          O       0.74320   0.76670   0.86300
O          O       0.74320   0.23330   0.36300
O          O       0.25680   0.23330   0.13700
C          C       0.38210   0.26520   0.65870
C          C       0.61790   0.26520   0.84130
C          C       0.61790   0.73480   0.34130
C          C       0.38210   0.73480   0.15870
C          C       0.26730   0.59430   0.41020
C          C       0.73270   0.59430   0.08980
C          C       0.73270   0.40570   0.58980
C          C       0.26730   0.40570   0.91020
C          C       0.38180   0.41150   0.66550
C          C       0.61820   0.41150   0.83450
C          C       0.61820   0.58850   0.33450
C          C       0.38180   0.58850   0.16550
C          C       0.25570   0.30020   0.43350
C          C       0.74430   0.30020   0.06650
C          C       0.74430   0.69980   0.56650
C          C       0.25570   0.69980   0.93350
C          C       0.34820   0.18750   0.63110
C          C       0.65180   0.18750   0.86890
C          C       0.65180   0.81250   0.36890
C          C       0.34820   0.81250   0.13110
C          C       0.45040   0.44420   0.54810
C          C       0.54960   0.44420   0.95190
C          C       0.54960   0.55580   0.45190
C          C       0.45040   0.55580   0.04810
C          C       0.67570   0.07320   0.69690
C          C       0.32430   0.07320   0.80310
C          C       0.32430   0.92680   0.30310
C          C       0.67570   0.92680   0.19690
C          C       0.25390   0.96770   0.55280
C          C       0.74610   0.96770   0.94720
C          C       0.74610   0.03230   0.44720
C          C       0.25390   0.03230   0.05280
O          O       0.63430   0.87240   0.72450
O          O       0.36570   0.87240   0.77550
O          O       0.36570   0.12760   0.27550
O          O       0.63430   0.12760   0.22450
C          C       0.46940   0.33830   0.72700
C          C       0.53060   0.33830   0.77300
C          C       0.53060   0.66170   0.27300
C          C       0.46940   0.66170   0.22700
C          C       0.37100   0.13170   0.60660
C          C       0.62900   0.13170   0.89340
C          C       0.62900   0.86830   0.39340
C          C       0.37100   0.86830   0.10660
H          H       0.40798   0.14048   0.60896
H          H       0.59202   0.14048   0.89104
H          H       0.59202   0.85952   0.39104
H          H       0.40798   0.85952   0.10896
C          C       0.17840   0.22130   0.35910
C          C       0.82160   0.22130   0.14090
C          C       0.82160   0.77870   0.64090
C          C       0.17840   0.77870   0.85910
H          H       0.15537   0.20969   0.32087
H          H       0.84463   0.20969   0.17913
H          H       0.84463   0.79031   0.67913
H          H       0.15537   0.79031   0.82087
C          C       0.98270   0.73060   0.33110
C          C       0.01730   0.73060   0.16890
C          C       0.01730   0.26940   0.66890
C          C       0.98270   0.26940   0.83110
H          H       0.94972   0.70682   0.30120
H          H       0.05028   0.70682   0.19880
H          H       0.05028   0.29318   0.69880
H          H       0.94972   0.29318   0.80120
C          C       0.35250   0.33750   0.64200
C          C       0.64750   0.33750   0.85800
C          C       0.64750   0.66250   0.35800
C          C       0.35250   0.66250   0.14200
H          H       0.31272   0.33794   0.61485
H          H       0.68728   0.33794   0.88515
H          H       0.68728   0.66206   0.38515
H          H       0.31272   0.66206   0.11485
C          C       0.47190   0.18890   0.72720
C          C       0.52810   0.18890   0.77280
C          C       0.52810   0.81110   0.27280
C          C       0.47190   0.81110   0.22720
H          H       0.45345   0.13952   0.71150
H          H       0.54655   0.13952   0.78850
H          H       0.54655   0.86048   0.28850
H          H       0.45345   0.86048   0.21150
C          C       0.60740   0.28020   0.69330
C          C       0.39260   0.28020   0.80670
C          C       0.39260   0.71980   0.30670
C          C       0.60740   0.71980   0.19330
H          H       0.60822   0.31879   0.71906
H          H       0.39178   0.31879   0.78094
H          H       0.39178   0.68121   0.28094
H          H       0.60822   0.68121   0.21906
C          C       0.21450   0.61360   0.40930
C          C       0.78550   0.61360   0.09070
C          C       0.78550   0.38640   0.59070
C          C       0.21450   0.38640   0.90930
H          H       0.20266   0.58500   0.43207
H          H       0.79734   0.58500   0.06793
H          H       0.79734   0.41500   0.56793
H          H       0.20266   0.41500   0.93207
C          C       0.64080   0.15060   0.67510
C          C       0.35920   0.15060   0.82490
C          C       0.35920   0.84940   0.32490
C          C       0.64080   0.84940   0.17510
C          C       0.57530   0.23360   0.59660
C          C       0.42470   0.23360   0.90340
C          C       0.42470   0.76640   0.40340
C          C       0.57530   0.76640   0.09660
H          H       0.55343   0.24114   0.55770
H          H       0.44657   0.24114   0.94230
H          H       0.44657   0.75886   0.44231
H          H       0.55343   0.75886   0.05770
C          C       0.22020   0.28380   0.37600
C          C       0.77980   0.28380   0.12400
C          C       0.77980   0.71620   0.62400
C          C       0.22020   0.71620   0.87600
H          H       0.22454   0.31455   0.34913
H          H       0.77546   0.31455   0.15087
H          H       0.77546   0.68545   0.65087
H          H       0.22454   0.68545   0.84913
C          C       0.60990   0.16530   0.61810
C          C       0.39010   0.16530   0.88190
C          C       0.39010   0.83470   0.38190
C          C       0.60990   0.83470   0.11810
H          H       0.61252   0.12794   0.59335
H          H       0.38748   0.12794   0.90665
H          H       0.38748   0.87206   0.40665
H          H       0.61252   0.87206   0.09335
C          C       0.28790   0.04370   0.58070
C          C       0.71210   0.04370   0.91930
C          C       0.71210   0.95630   0.41930
C          C       0.28790   0.95630   0.08070
C          C       0.17900   0.67570   0.37430
C          C       0.82100   0.67570   0.12570
C          C       0.82100   0.32430   0.62570
C          C       0.17900   0.32430   0.87430
H          H       0.14329   0.68749   0.37391
H          H       0.85671   0.68749   0.12609
H          H       0.85671   0.31251   0.62609
H          H       0.14329   0.31251   0.87391
C          C       0.63050   0.74000   0.68560
C          C       0.36950   0.74000   0.81440
C          C       0.36950   0.26000   0.31440
C          C       0.63050   0.26000   0.18560
O          O       0.26260   0.93200   0.51790
O          O       0.73740   0.93200   0.98210
O          O       0.73740   0.06800   0.48210
O          O       0.26260   0.06800   0.01790
N          N       0.01310   0.68260   0.37320
N          N       0.98690   0.68260   0.12680
N          N       0.98690   0.31740   0.62680
N          N       0.01310   0.31740   0.87320
C          C       0.66060   0.81750   0.70860
C          C       0.33940   0.81750   0.79140
C          C       0.33940   0.18250   0.29140
C          C       0.66060   0.18250   0.20860
C          C       0.33820   0.06400   0.57930
C          C       0.66180   0.06400   0.92070
C          C       0.66180   0.93600   0.42070
C          C       0.33820   0.93600   0.07930
H          H       0.35109   0.03100   0.55914
H          H       0.64891   0.03100   0.94086
H          H       0.64891   0.96900   0.44086
H          H       0.35109   0.96900   0.05914
C          C       0.84070   0.69370   0.82200
C          C       0.15930   0.69370   0.67800
C          C       0.15930   0.30630   0.17800
C          C       0.84070   0.30630   0.32200
H          H       0.87851   0.69847   0.85611
H          H       0.12149   0.69847   0.64389
H          H       0.12149   0.30153   0.14389
H          H       0.87851   0.30153   0.35611
H          H       0.81064   0.68558   0.83372
H          H       0.18936   0.68558   0.66628
H          H       0.18936   0.31442   0.16628
H          H       0.81064   0.31442   0.33372
C          C       0.64010   0.20750   0.71170
C          C       0.35990   0.20750   0.78830
C          C       0.35990   0.79250   0.28830
C          C       0.64010   0.79250   0.21170
H          H       0.66208   0.19779   0.75035
H          H       0.33792   0.19779   0.74965
H          H       0.33792   0.80221   0.24965
H          H       0.66208   0.80221   0.25035
C          C       0.62660   0.61200   0.64140
C          C       0.37340   0.61200   0.85860
C          C       0.37340   0.38800   0.35860
C          C       0.62660   0.38800   0.14140
H          H       0.64482   0.57490   0.62832
H          H       0.35518   0.57490   0.87168
H          H       0.35518   0.42510   0.37168
H          H       0.64482   0.42510   0.12832
C          C       0.28040   0.63540   0.61490
C          C       0.71960   0.63540   0.88510
C          C       0.71960   0.36460   0.38510
C          C       0.28040   0.36460   0.11490
C          C       0.34470   0.49040   0.64700
C          C       0.65530   0.49040   0.85300
C          C       0.65530   0.50960   0.35300
C          C       0.34470   0.50960   0.14700
C          C       0.26320   0.10060   0.60110
C          C       0.73680   0.10060   0.89890
C          C       0.73680   0.89940   0.39890
C          C       0.26320   0.89940   0.10110
H          H       0.22599   0.09122   0.59799
H          H       0.77401   0.09122   0.90201
H          H       0.77401   0.90878   0.40201
H          H       0.22599   0.90878   0.09799
C          C       0.29340   0.17150   0.62590
C          C       0.70660   0.17150   0.87410
C          C       0.70660   0.82850   0.37410
C          C       0.29340   0.82850   0.12590
H          H       0.27621   0.20925   0.63956
H          H       0.72379   0.20925   0.86044
H          H       0.72379   0.79075   0.36044
H          H       0.27621   0.79075   0.13956
C          C       0.65480   0.68580   0.66480
C          C       0.34520   0.68580   0.83520
C          C       0.34520   0.31420   0.33520
C          C       0.65480   0.31420   0.16480
H          H       0.69097   0.69778   0.66617
H          H       0.30903   0.69778   0.83383
H          H       0.30903   0.30222   0.33383
H          H       0.69097   0.30222   0.16617
C          C       0.84250   0.62480   0.79420
C          C       0.15750   0.62480   0.70580
C          C       0.15750   0.37520   0.20580
C          C       0.84250   0.37520   0.29420
C          C       0.78840   0.59210   0.75500
C          C       0.21160   0.59210   0.74500
C          C       0.21160   0.40790   0.24500
C          C       0.78840   0.40790   0.25500
H          H       0.75318   0.61739   0.74850
H          H       0.24682   0.61739   0.75150
H          H       0.24682   0.38261   0.25150
H          H       0.75318   0.38261   0.24850
C          C       0.78680   0.52150   0.72550
C          C       0.21320   0.52150   0.77450
C          C       0.21320   0.47850   0.27450
C          C       0.78680   0.47850   0.22550
H          H       0.75050   0.49966   0.69930
H          H       0.24950   0.49966   0.80070
H          H       0.24950   0.50034   0.30070
H          H       0.75050   0.50034   0.19930
C          C       0.83930   0.48370   0.73520
C          C       0.16070   0.48370   0.76480
C          C       0.16070   0.51630   0.26480
C          C       0.83930   0.51630   0.23520
H          H       0.83827   0.43653   0.71551
H          H       0.16173   0.43653   0.78449
H          H       0.16173   0.56347   0.28449
H          H       0.83827   0.56347   0.21551
C          C       0.89350   0.51640   0.77440
C          C       0.10650   0.51640   0.72560
C          C       0.10650   0.48360   0.22560
C          C       0.89350   0.48360   0.27440
H          H       0.92870   0.49112   0.78092
H          H       0.07130   0.49112   0.71908
H          H       0.07130   0.50888   0.21908
H          H       0.92870   0.50888   0.28092
C          C       0.89510   0.58700   0.80390
C          C       0.10490   0.58700   0.69610
C          C       0.10490   0.41300   0.19610
C          C       0.89510   0.41300   0.30390
H          H       0.93138   0.60885   0.83013
H          H       0.06862   0.60885   0.66987
H          H       0.06862   0.39115   0.16987
H          H       0.93138   0.39115   0.33013
C          C       0.31190   0.61540   0.67340
C          C       0.68810   0.61540   0.82660
C          C       0.68810   0.38460   0.32660
C          C       0.31190   0.38460   0.17340
H          H       0.31124   0.64997   0.70053
H          H       0.68876   0.64997   0.79947
H          H       0.68876   0.35003   0.29947
H          H       0.31124   0.35003   0.20053
C          C       0.54930   0.64630   0.66260
C          C       0.45070   0.64630   0.83740
C          C       0.45070   0.35370   0.33740
C          C       0.54930   0.35370   0.16260
H          H       0.51439   0.63244   0.66322
H          H       0.48561   0.63244   0.83678
H          H       0.48561   0.36756   0.33678
H          H       0.51439   0.36756   0.16322
C          C       0.06380   0.70950   0.41700
C          C       0.93620   0.70950   0.08300
C          C       0.93620   0.29050   0.58300
C          C       0.06380   0.29050   0.91700
C          C       0.57850   0.71930   0.68670
C          C       0.42150   0.71930   0.81330
C          C       0.42150   0.28070   0.31330
C          C       0.57850   0.28070   0.18670
H          H       0.56300   0.75438   0.70359
H          H       0.43700   0.75438   0.79641
H          H       0.43700   0.24562   0.29641
H          H       0.56300   0.24562   0.20359
C          C       0.24800   0.71690   0.59890
C          C       0.75200   0.71690   0.90110
C          C       0.75200   0.28310   0.40110
C          C       0.24800   0.28310   0.09890
C          C       0.34380   0.54230   0.68860
C          C       0.65620   0.54230   0.81140
C          C       0.65620   0.45770   0.31140
C          C       0.34380   0.45770   0.18860
H          H       0.36471   0.52765   0.72658
H          H       0.63529   0.52765   0.77342
H          H       0.63529   0.47235   0.27342
H          H       0.36471   0.47235   0.22658
C          C       0.31150   0.51160   0.59250
C          C       0.68850   0.51160   0.90750
C          C       0.68850   0.48840   0.40750
C          C       0.31150   0.48840   0.09250
H          H       0.30855   0.47560   0.56447
H          H       0.69145   0.47560   0.93553
H          H       0.69145   0.52440   0.43553
H          H       0.30855   0.52440   0.06447
C          C       0.28080   0.58680   0.57630
C          C       0.71920   0.58680   0.92370
C          C       0.71920   0.41320   0.42370
C          C       0.28080   0.41320   0.07630
H          H       0.26095   0.60183   0.53842
H          H       0.73905   0.60183   0.96158
H          H       0.73905   0.39817   0.46158
H          H       0.26095   0.39817   0.03842
C          C       0.15400   0.43860   0.48900
C          C       0.84600   0.43860   0.01100
C          C       0.84600   0.56140   0.51100
C          C       0.15400   0.56140   0.98900
H          H       0.14508   0.41959   0.45328
H          H       0.85492   0.41959   0.04672
H          H       0.85492   0.58041   0.54672
H          H       0.14508   0.58041   0.95328
C          C       0.13430   0.51520   0.49520
C          C       0.86570   0.51520   0.00480
C          C       0.86570   0.48480   0.50480
C          C       0.13430   0.48480   0.99520
C          C       0.14760   0.54360   0.54860
C          C       0.85240   0.54360   0.95140
C          C       0.85240   0.45640   0.45140
C          C       0.14760   0.45640   0.04860
H          H       0.13444   0.59483   0.55273
H          H       0.86556   0.59483   0.94727
H          H       0.86556   0.40517   0.44727
H          H       0.13444   0.40517   0.05273
C          C       0.18060   0.49540   0.59600
C          C       0.81940   0.49540   0.90400
C          C       0.81940   0.50460   0.40400
C          C       0.18060   0.50460   0.09600
H          H       0.18950   0.51443   0.63174
H          H       0.81050   0.51443   0.86826
H          H       0.81050   0.48557   0.36826
H          H       0.18950   0.48557   0.13174
C          C       0.20030   0.41880   0.58980
C          C       0.79970   0.41880   0.91020
C          C       0.79970   0.58120   0.41020
C          C       0.20030   0.58120   0.08980
H          H       0.22235   0.38661   0.62152
H          H       0.77765   0.38661   0.87848
H          H       0.77765   0.61339   0.37848
H          H       0.22235   0.61339   0.12152
C          C       0.18700   0.39040   0.53640
C          C       0.81300   0.39040   0.96360
C          C       0.81300   0.60960   0.46360
C          C       0.18700   0.60960   0.03640
H          H       0.20014   0.33919   0.53229
H          H       0.79986   0.33919   0.96771
H          H       0.79986   0.66081   0.46771
H          H       0.20014   0.66081   0.03229
N          N       0.09930   0.65900   0.45810
N          N       0.90070   0.65900   0.04190
N          N       0.90070   0.34100   0.54190
N          N       0.09930   0.34100   0.95810
H          H       0.13029   0.67778   0.48687
H          H       0.86971   0.67778   0.01313
H          H       0.86971   0.32222   0.51313
H          H       0.13029   0.32222   0.98687
C          C       0.08470   0.56660   0.45420
C          C       0.91530   0.56660   0.04580
C          C       0.91530   0.43340   0.54580
C          C       0.08470   0.43340   0.95420
H          H       0.05073   0.55894   0.46038
H          H       0.94927   0.55894   0.03962
H          H       0.94927   0.44106   0.53962
H          H       0.05073   0.44106   0.96038
H          H       0.07365   0.54785   0.41622
H          H       0.92635   0.54785   0.08378
H          H       0.92635   0.45215   0.58378
H          H       0.07365   0.45215   0.91622
