data_crystal

_cell_length_a    14.16200
_cell_length_b    38.22400
_cell_length_c    14.06500
_cell_angle_alpha 90.00000
_cell_angle_beta  94.91500
_cell_angle_gamma 90.00000

_symmetry_space_group_name_Hall 'P 1'
_symmetry_space_group_name_H-M  'P 1'

loop_
_symmetry_equiv_pos_as_xyz
 'x,y,z'

loop_
_atom_site_label
_atom_site_type_symbol
_atom_site_fract_x
_atom_site_fract_y
_atom_site_fract_z
Dy         Dy      0.23154   0.14139   0.32468
Dy         Dy      0.76846   0.64139   0.17532
Dy         Dy      0.76846   0.85861   0.67532
Dy         Dy      0.23154   0.35861   0.82468
C          C       0.19450   0.03529   0.51010
C          C       0.80550   0.53529   0.98990
C          C       0.80550   0.96471   0.48990
C          C       0.19450   0.46471   0.01010
C          C       0.22280   0.02611   0.60340
C          C       0.77720   0.52611   0.89660
C          C       0.77720   0.97389   0.39660
C          C       0.22280   0.47389   0.10340
H          H       0.28295   0.03348   0.63126
H          H       0.71706   0.53348   0.86874
H          H       0.71706   0.96652   0.36874
H          H       0.28295   0.46652   0.13126
C          C       0.16500   0.00647   0.65630
C          C       0.83500   0.50647   0.84370
C          C       0.83500   0.99353   0.34370
C          C       0.16500   0.49353   0.15630
C          C       0.00220   0.31723   0.53870
C          C       0.99780   0.81723   0.96130
C          C       0.99780   0.68277   0.46130
C          C       0.00220   0.18277   0.03870
H          H       0.03782   0.33823   0.54709
H          H       0.96218   0.83823   0.95291
H          H       0.96218   0.66177   0.45291
H          H       0.03782   0.16177   0.04709
C          C       0.05050   0.28426   0.54660
C          C       0.94950   0.78426   0.95340
C          C       0.94950   0.71574   0.45340
C          C       0.05050   0.21574   0.04660
C          C       0.10710   0.02539   0.46690
C          C       0.89290   0.52539   0.03310
C          C       0.89290   0.97461   0.53310
C          C       0.10710   0.47461   0.96690
C          C       0.15030   0.28118   0.56480
C          C       0.84970   0.78118   0.93520
C          C       0.84970   0.71882   0.43520
C          C       0.15030   0.21882   0.06480
C          C       0.04480   0.00533   0.52100
C          C       0.95520   0.50533   0.97900
C          C       0.95520   0.99467   0.47900
C          C       0.04480   0.49467   0.02100
C          C       0.19280   0.24888   0.56840
C          C       0.80720   0.74888   0.93160
C          C       0.80720   0.75112   0.43160
C          C       0.19280   0.25112   0.06840
H          H       0.25980   0.24736   0.57908
H          H       0.74020   0.74736   0.92092
H          H       0.74020   0.75264   0.42092
H          H       0.25980   0.25264   0.07908
C          C       0.14020   0.21857   0.55680
C          C       0.85980   0.71857   0.94320
C          C       0.85980   0.78143   0.44320
C          C       0.14020   0.28143   0.05680
C          C       0.04120   0.21974   0.54220
C          C       0.95880   0.71974   0.95780
C          C       0.95880   0.78026   0.45780
C          C       0.04120   0.28026   0.04220
H          H       0.01276   0.16656   0.53828
H          H       0.98724   0.66656   0.96172
H          H       0.98724   0.83344   0.46172
H          H       0.01276   0.33344   0.03828
O          O       0.27920   0.19885   0.34010
O          O       0.72080   0.69885   0.15990
O          O       0.72080   0.80115   0.65990
O          O       0.27920   0.30115   0.84010
C          C       0.34530   0.21802   0.36930
C          C       0.65470   0.71802   0.13070
C          C       0.65470   0.78198   0.63070
C          C       0.34530   0.28198   0.86930
H          H       0.40190   0.20752   0.39709
H          H       0.59810   0.70752   0.10291
H          H       0.59810   0.79248   0.60291
H          H       0.40190   0.29248   0.89709
N          N       0.34130   0.25258   0.36370
N          N       0.65870   0.75258   0.13630
N          N       0.65870   0.74742   0.63630
N          N       0.34130   0.24742   0.86370
C          C       0.25970   0.27100   0.32320
C          C       0.74030   0.77100   0.17680
C          C       0.74030   0.72900   0.67680
C          C       0.25970   0.22900   0.82320
H          H       0.21351   0.25433   0.29392
H          H       0.78649   0.75433   0.20608
H          H       0.78649   0.74567   0.70608
H          H       0.21351   0.24567   0.79392
H          H       0.27858   0.28736   0.27454
H          H       0.72142   0.78736   0.22546
H          H       0.72142   0.71264   0.72546
H          H       0.27858   0.21264   0.77454
H          H       0.23119   0.28411   0.37344
H          H       0.76881   0.78411   0.12656
H          H       0.76881   0.71589   0.62656
H          H       0.23119   0.21589   0.87344
C          C       0.42180   0.27330   0.40170
C          C       0.57820   0.77330   0.09830
C          C       0.57820   0.72670   0.59830
C          C       0.42180   0.22670   0.90170
H          H       0.47548   0.25777   0.41982
H          H       0.52452   0.75777   0.08018
H          H       0.52452   0.74223   0.58018
H          H       0.47548   0.24223   0.91982
H          H       0.40487   0.28620   0.45797
H          H       0.59513   0.78620   0.04203
H          H       0.59513   0.71380   0.54203
H          H       0.40487   0.21380   0.95797
H          H       0.43944   0.28981   0.35302
H          H       0.56056   0.78981   0.14698
H          H       0.56056   0.71019   0.64698
H          H       0.43944   0.21019   0.85302
O          O       0.36690   0.12861   0.25280
O          O       0.63310   0.62861   0.24720
O          O       0.63310   0.87139   0.74720
O          O       0.36690   0.37139   0.75280
C          C       0.45240   0.12640   0.27230
C          C       0.54760   0.62640   0.22770
C          C       0.54760   0.87360   0.72770
C          C       0.45240   0.37360   0.77230
H          H       0.47700   0.13031   0.33639
H          H       0.52300   0.63031   0.16361
H          H       0.52300   0.86969   0.66361
H          H       0.47700   0.36969   0.83639
N          N       0.51310   0.11880   0.20730
N          N       0.48690   0.61880   0.29270
N          N       0.48690   0.88120   0.79270
N          N       0.51310   0.38120   0.70730
C          C       0.48270   0.11620   0.11100
C          C       0.51730   0.61620   0.38900
C          C       0.51730   0.88380   0.88900
C          C       0.48270   0.38380   0.61100
H          H       0.48741   0.09185   0.09035
H          H       0.51259   0.59185   0.40965
H          H       0.51259   0.90815   0.90965
H          H       0.48741   0.40815   0.59035
H          H       0.52261   0.13101   0.07399
H          H       0.47739   0.63101   0.42601
H          H       0.47739   0.86899   0.92601
H          H       0.52261   0.36899   0.57399
H          H       0.41669   0.12401   0.10083
H          H       0.58331   0.62401   0.39917
H          H       0.58331   0.87599   0.89917
H          H       0.41669   0.37599   0.60083
C          C       0.61260   0.11570   0.23670
C          C       0.38740   0.61570   0.26330
C          C       0.38740   0.88430   0.76330
C          C       0.61260   0.38430   0.73670
H          H       0.62461   0.12355   0.30297
H          H       0.37539   0.62355   0.19703
H          H       0.37539   0.87645   0.69703
H          H       0.62461   0.37645   0.80297
H          H       0.64886   0.13028   0.19543
H          H       0.35114   0.63028   0.30457
H          H       0.35114   0.86972   0.80457
H          H       0.64886   0.36972   0.69543
H          H       0.63223   0.09125   0.23165
H          H       0.36777   0.59125   0.26835
H          H       0.36777   0.90875   0.76835
H          H       0.63223   0.40875   0.73165
O          O       0.06520   0.13999   0.30990
O          O       0.93480   0.63999   0.19010
O          O       0.93480   0.86001   0.69010
O          O       0.06520   0.36001   0.80990
C          C       0.01220   0.12358   0.35950
C          C       0.98780   0.62358   0.14050
C          C       0.98780   0.87642   0.64050
C          C       0.01220   0.37642   0.85950
H          H       0.04040   0.11291   0.41596
H          H       0.95961   0.61291   0.08404
H          H       0.95961   0.88709   0.58404
H          H       0.04040   0.38709   0.91596
O          O       0.36870   0.13998   0.44940
O          O       0.63130   0.63998   0.05060
O          O       0.63130   0.86002   0.55060
O          O       0.36870   0.36002   0.94940
H          H       0.38493   0.15725   0.48588
H          H       0.61507   0.65725   0.01412
H          H       0.61507   0.84275   0.51412
H          H       0.38493   0.34275   0.98588
H          H       0.37790   0.12216   0.48655
H          H       0.62210   0.62216   0.01345
H          H       0.62210   0.87784   0.51345
H          H       0.37790   0.37784   0.98655
O          O       0.22180   0.09025   0.41140
O          O       0.77820   0.59025   0.08860
O          O       0.77820   0.90975   0.58860
O          O       0.22180   0.40975   0.91140
O          O       0.30250   0.03696   0.37000
O          O       0.69750   0.53696   0.13000
O          O       0.69750   0.96304   0.63000
O          O       0.30250   0.46304   0.87000
O          O       0.35420   0.06891   0.51300
O          O       0.64580   0.56891   0.98700
O          O       0.64580   0.93109   0.48700
O          O       0.35420   0.43109   0.01300
O          O       0.19100   0.33300   0.67500
O          O       0.80900   0.83300   0.82500
O          O       0.80900   0.66700   0.32500
O          O       0.19100   0.16700   0.17500
O          O       0.20300   0.34228   0.50760
O          O       0.79700   0.84228   0.99240
O          O       0.79700   0.65772   0.49240
O          O       0.20300   0.15772   0.00760
O          O       0.31880   0.30636   0.59800
O          O       0.68120   0.80636   0.90200
O          O       0.68120   0.69364   0.40200
O          O       0.31880   0.19364   0.09800
O          O       0.17490   0.16018   0.47350
O          O       0.82510   0.66018   0.02650
O          O       0.82510   0.83982   0.52650
O          O       0.17490   0.33982   0.97350
O          O       0.16620   0.15900   0.64380
O          O       0.83380   0.65900   0.85620
O          O       0.83380   0.84100   0.35620
O          O       0.16620   0.34100   0.14380
O          O       0.30090   0.18591   0.57790
O          O       0.69910   0.68591   0.92210
O          O       0.69910   0.81409   0.42210
O          O       0.30090   0.31409   0.07790
S          S       0.27599   0.05902   0.44636
S          S       0.72401   0.55902   0.05364
S          S       0.72401   0.94098   0.55364
S          S       0.27599   0.44098   0.94636
S          S       0.22310   0.31899   0.58689
S          S       0.77690   0.81899   0.91311
S          S       0.77690   0.68101   0.41311
S          S       0.22310   0.18101   0.08689
S          S       0.20086   0.17753   0.56460
S          S       0.79914   0.67753   0.93540
S          S       0.79914   0.82247   0.43540
S          S       0.20086   0.32247   0.06460
C          C       0.00820   0.25280   0.79100
C          C       0.99180   0.75280   0.70900
C          C       0.99180   0.74720   0.20900
C          C       0.00820   0.24720   0.29100
H          H       0.04071   0.23167   0.81540
H          H       0.95929   0.73167   0.68459
H          H       0.95929   0.76833   0.18459
H          H       0.04071   0.26833   0.31541
H          H       0.01482   0.27131   0.83901
H          H       0.98518   0.77131   0.66098
H          H       0.98518   0.72869   0.16099
H          H       0.01482   0.22869   0.33901
H          H       0.03645   0.26065   0.73301
H          H       0.96355   0.76065   0.76699
H          H       0.96355   0.73935   0.26699
H          H       0.03645   0.23935   0.23301
C          C       0.05160   0.12490   0.81840
C          C       0.94840   0.62490   0.68160
C          C       0.94840   0.87510   0.18160
C          C       0.05160   0.37510   0.31840
H          H       0.07974   0.14651   0.79593
H          H       0.92026   0.64651   0.70407
H          H       0.92026   0.85349   0.20407
H          H       0.07974   0.35349   0.29593
H          H       0.10206   0.10870   0.84128
H          H       0.89794   0.60870   0.65872
H          H       0.89794   0.89130   0.15872
H          H       0.10206   0.39130   0.34128
H          H       0.01244   0.13044   0.87062
H          H       0.98755   0.63044   0.62938
H          H       0.98755   0.86956   0.12938
H          H       0.01245   0.36956   0.37062
C          C       0.02900   0.08090   0.68600
C          C       0.97100   0.58090   0.81400
C          C       0.97100   0.91910   0.31400
C          C       0.02900   0.41910   0.18600
H          H       0.02026   0.05863   0.71931
H          H       0.97974   0.55863   0.78069
H          H       0.97974   0.94137   0.28069
H          H       0.02026   0.44137   0.21931
H          H       0.09641   0.08450   0.67932
H          H       0.90359   0.58450   0.82068
H          H       0.90359   0.91550   0.32068
H          H       0.09641   0.41550   0.17932
O          O       0.14240   0.00640   0.83460
O          O       0.85760   0.50640   0.66540
O          O       0.85760   0.99360   0.16540
O          O       0.14240   0.49360   0.33460
O          O       0.30060   0.01170   0.79110
O          O       0.69940   0.51170   0.70890
O          O       0.69940   0.98830   0.20890
O          O       0.30060   0.48830   0.29110
C          C       0.21130   0.08700   0.14370
C          C       0.78870   0.58700   0.35630
C          C       0.78870   0.91300   0.85630
C          C       0.21130   0.41300   0.64370
H          H       0.27499   0.09133   0.13057
H          H       0.72501   0.59133   0.36943
H          H       0.72501   0.90867   0.86943
H          H       0.27499   0.40867   0.63057
O          O       0.18800   0.09477   0.21840
O          O       0.81200   0.59477   0.28160
O          O       0.81200   0.90523   0.78160
O          O       0.18800   0.40523   0.71840
N          N       0.15400   0.07270   0.07760
N          N       0.84600   0.57270   0.42240
N          N       0.84600   0.92730   0.92240
N          N       0.15400   0.42730   0.57760
H          H       0.28148   0.05744   0.00934
H          H       0.71852   0.55744   0.49066
H          H       0.71852   0.94256   0.99066
H          H       0.28148   0.44256   0.50934
C          C       0.03840   0.06790   0.07730
C          C       0.96160   0.56790   0.42270
C          C       0.96160   0.93210   0.92270
C          C       0.03840   0.43210   0.57730
H          H       0.00431   0.08876   0.05724
H          H       0.99569   0.58876   0.44276
H          H       0.99569   0.91124   0.94276
H          H       0.00431   0.41124   0.55724
H          H       0.02099   0.06100   0.13903
H          H       0.97901   0.56100   0.36097
H          H       0.97901   0.93900   0.86097
H          H       0.02099   0.43900   0.63903
H          H       0.02298   0.04954   0.03220
H          H       0.97702   0.54954   0.46780
H          H       0.97702   0.95046   0.96780
H          H       0.02298   0.45046   0.53220
C          C       0.07270   0.03417   0.37000
C          C       0.92730   0.53417   0.13000
C          C       0.92730   0.96583   0.63000
C          C       0.07270   0.46583   0.87000
H          H       0.11253   0.04730   0.33238
H          H       0.88748   0.54730   0.16762
H          H       0.88748   0.95270   0.66762
H          H       0.11252   0.45270   0.83238
H          H       0.21325   0.00086   0.17400
H          H       0.78675   0.50086   0.32600
H          H       0.78675   0.99914   0.82600
H          H       0.21325   0.49914   0.67400
C          C       0.07550   0.99550   0.61660
C          C       0.92450   0.49550   0.88340
C          C       0.92450   0.00450   0.38340
C          C       0.07550   0.50450   0.11660
C          C       0.01280   0.97543   0.66860
C          C       0.98720   0.47543   0.83140
C          C       0.98720   0.02457   0.33140
C          C       0.01280   0.52457   0.16860
H          H       0.03224   0.96871   0.73236
H          H       0.96776   0.46871   0.76764
H          H       0.96776   0.03129   0.26764
H          H       0.03224   0.53129   0.23236
S          S       0.21110   0.99382   0.77445
S          S       0.78890   0.49382   0.72555
S          S       0.78890   0.00618   0.22555
S          S       0.21110   0.50618   0.27445
O          O       0.21760   0.95625   0.77230
O          O       0.78240   0.45625   0.72770
O          O       0.78240   0.04375   0.22770
O          O       0.21760   0.54375   0.27230
Dy         Dy      0.30413   0.85164   0.26788
Dy         Dy      0.69587   0.35164   0.23212
Dy         Dy      0.69587   0.14836   0.73212
Dy         Dy      0.30413   0.64836   0.76788
C          C       0.25920   0.77343   0.50150
C          C       0.74080   0.27343   0.99850
C          C       0.74080   0.22657   0.49850
C          C       0.25920   0.72657   0.00150
C          C       0.30260   0.74071   0.50830
C          C       0.69740   0.24071   0.99170
C          C       0.69740   0.25929   0.49170
C          C       0.30260   0.75929   0.00830
H          H       0.36972   0.73920   0.51677
H          H       0.63028   0.23920   0.98323
H          H       0.63028   0.26080   0.48323
H          H       0.36972   0.76080   0.01677
C          C       0.24970   0.71071   0.50290
C          C       0.75030   0.21071   0.99710
C          C       0.75030   0.28929   0.49710
C          C       0.24970   0.78929   0.00290
C          C       0.14960   0.71160   0.48850
C          C       0.85040   0.21160   0.01150
C          C       0.85040   0.28840   0.51150
C          C       0.14960   0.78840   0.98850
C          C       0.09230   0.68089   0.48020
C          C       0.90770   0.18089   0.01980
C          C       0.90770   0.31911   0.51980
C          C       0.09230   0.81911   0.98020
H          H       0.12160   0.65860   0.48830
H          H       0.87840   0.15860   0.01170
H          H       0.87840   0.34140   0.51169
H          H       0.12160   0.84140   0.98830
C          C       0.01680   0.81111   0.46580
C          C       0.98320   0.31111   0.03420
C          C       0.98320   0.18889   0.53420
C          C       0.01680   0.68889   0.96580
C          C       0.11210   0.80918   0.47890
C          C       0.88790   0.30918   0.02110
C          C       0.88790   0.19082   0.52110
C          C       0.11210   0.69082   0.97890
H          H       0.14810   0.83018   0.48259
H          H       0.85190   0.33018   0.01741
H          H       0.85190   0.16982   0.51741
H          H       0.14810   0.66982   0.98259
C          C       0.16020   0.77644   0.48750
C          C       0.83980   0.27644   0.01250
C          C       0.83980   0.22356   0.51250
C          C       0.16020   0.72356   0.98750
C          C       0.10560   0.74493   0.48050
C          C       0.89440   0.24493   0.01950
C          C       0.89440   0.25507   0.51950
C          C       0.10560   0.75507   0.98050
C          C       0.00390   0.74705   0.46430
C          C       0.99610   0.24705   0.03570
C          C       0.99610   0.25295   0.53570
C          C       0.00390   0.75295   0.96430
N          N       0.07980   0.88034   0.65950
N          N       0.92020   0.38034   0.84050
N          N       0.92020   0.11966   0.34050
N          N       0.07980   0.61966   0.15950
C          C       0.13120   0.86690   0.74330
C          C       0.86880   0.36690   0.75670
C          C       0.86880   0.13310   0.25670
C          C       0.13120   0.63310   0.24330
H          H       0.16733   0.84622   0.72672
H          H       0.83268   0.34622   0.77328
H          H       0.83268   0.15378   0.27328
H          H       0.16733   0.65378   0.22673
H          H       0.17489   0.88482   0.77074
H          H       0.82510   0.38482   0.72926
H          H       0.82510   0.11518   0.22926
H          H       0.17489   0.61518   0.27074
H          H       0.08679   0.86039   0.79003
H          H       0.91321   0.36039   0.70997
H          H       0.91321   0.13961   0.20997
H          H       0.08679   0.63961   0.29003
C          C       0.13550   0.90040   0.59530
C          C       0.86450   0.40040   0.90470
C          C       0.86450   0.09960   0.40470
C          C       0.13550   0.59960   0.09530
H          H       0.09330   0.90982   0.54265
H          H       0.90670   0.40982   0.95735
H          H       0.90670   0.09018   0.45735
H          H       0.09330   0.59018   0.04265
H          H       0.16776   0.91965   0.63064
H          H       0.83224   0.41965   0.86936
H          H       0.83224   0.08035   0.36936
H          H       0.16776   0.58035   0.13064
H          H       0.18261   0.88502   0.56973
H          H       0.81739   0.38502   0.93027
H          H       0.81739   0.11498   0.43027
H          H       0.18261   0.61498   0.06973
O          O       0.31920   0.82726   0.41770
O          O       0.68080   0.32726   0.08230
O          O       0.68080   0.17274   0.58230
O          O       0.31920   0.67274   0.91770
O          O       0.42940   0.79831   0.52940
O          O       0.57060   0.29831   0.97060
O          O       0.57060   0.20169   0.47060
O          O       0.42940   0.70169   0.02940
O          O       0.30250   0.83275   0.58530
O          O       0.69750   0.33275   0.91470
O          O       0.69750   0.16725   0.41470
O          O       0.30250   0.66725   0.08530
O          O       0.28280   0.65509   0.60450
O          O       0.71720   0.15509   0.89550
O          O       0.71720   0.34491   0.39550
O          O       0.28280   0.84491   0.10450
O          O       0.27910   0.64867   0.43520
O          O       0.72090   0.14867   0.06480
O          O       0.72090   0.35133   0.56480
O          O       0.27910   0.85133   0.93520
O          O       0.41130   0.67891   0.52060
O          O       0.58870   0.17891   0.97940
O          O       0.58870   0.32109   0.47940
O          O       0.41130   0.82109   0.02060
S          S       0.31180   0.67018   0.51511
S          S       0.68820   0.17018   0.98489
S          S       0.68820   0.32982   0.48489
S          S       0.31180   0.82982   0.01511
S          S       0.33426   0.81093   0.51096
S          S       0.66574   0.31093   0.98904
S          S       0.66574   0.18907   0.48904
S          S       0.33426   0.68907   0.01096
O          O       0.25980   0.90670   0.20190
O          O       0.74020   0.40670   0.29810
O          O       0.74020   0.09330   0.79810
O          O       0.25980   0.59330   0.70190
C          C       0.25620   0.92130   0.12610
C          C       0.74380   0.42130   0.37390
C          C       0.74380   0.07870   0.87390
C          C       0.25620   0.57870   0.62610
H          H       0.27593   0.90865   0.07305
H          H       0.72407   0.40865   0.42695
H          H       0.72407   0.09135   0.92695
H          H       0.27593   0.59135   0.57305
N          N       0.22620   0.95410   0.11140
N          N       0.77380   0.45410   0.38860
N          N       0.77380   0.04590   0.88860
N          N       0.22620   0.54590   0.61140
C          C       0.21950   0.96620   0.01420
C          C       0.78050   0.46620   0.48580
C          C       0.78050   0.03380   0.98580
C          C       0.21950   0.53380   0.51420
H          H       0.16238   0.98049   0.00187
H          H       0.83762   0.48049   0.49813
H          H       0.83762   0.01951   0.99813
H          H       0.16238   0.51951   0.50187
H          H       0.27551   0.98025   0.00354
H          H       0.72449   0.48025   0.49646
H          H       0.72449   0.01975   0.99646
H          H       0.27551   0.51975   0.50354
C          C       0.19410   0.97670   0.18550
C          C       0.80590   0.47670   0.31450
C          C       0.80590   0.02330   0.81450
C          C       0.19410   0.52330   0.68550
H          H       0.22256   0.96897   0.24792
H          H       0.77744   0.46897   0.25208
H          H       0.77744   0.03103   0.75208
H          H       0.22256   0.53103   0.74792
H          H       0.12491   0.97545   0.18436
H          H       0.87509   0.47545   0.31564
H          H       0.87509   0.02455   0.81564
H          H       0.12491   0.52455   0.68436
O          O       0.40390   0.80390   0.24400
O          O       0.59610   0.30390   0.25600
O          O       0.59610   0.19610   0.75600
O          O       0.40390   0.69610   0.74400
C          C       0.39730   0.77180   0.24520
C          C       0.60270   0.27180   0.25480
C          C       0.60270   0.22820   0.75480
C          C       0.39730   0.72820   0.74520
H          H       0.34475   0.76104   0.21006
H          H       0.65525   0.26104   0.28994
H          H       0.65525   0.23896   0.78994
H          H       0.34475   0.73896   0.71006
N          N       0.46130   0.75140   0.29400
N          N       0.53870   0.25140   0.20600
N          N       0.53870   0.24860   0.70600
N          N       0.46130   0.74860   0.79400
C          C       0.54090   0.76670   0.35160
C          C       0.45910   0.26670   0.14840
C          C       0.45910   0.23330   0.64840
C          C       0.54090   0.73330   0.85160
H          H       0.52932   0.76535   0.41922
H          H       0.47068   0.26535   0.08078
H          H       0.47068   0.23465   0.58078
H          H       0.52932   0.73465   0.91922
H          H       0.59892   0.75378   0.34107
H          H       0.40108   0.25378   0.15893
H          H       0.40108   0.24622   0.65893
H          H       0.59892   0.74622   0.84107
H          H       0.54829   0.79122   0.33345
H          H       0.45171   0.29122   0.16655
H          H       0.45171   0.20878   0.66655
H          H       0.54829   0.70878   0.83345
C          C       0.45290   0.71340   0.29200
C          C       0.54710   0.21340   0.20800
C          C       0.54710   0.28660   0.70800
C          C       0.45290   0.78660   0.79200
H          H       0.51248   0.70315   0.27471
H          H       0.48752   0.20315   0.22529
H          H       0.48752   0.29685   0.72529
H          H       0.51248   0.79685   0.77471
H          H       0.43923   0.70496   0.35512
H          H       0.56077   0.20496   0.14488
H          H       0.56077   0.29504   0.64488
H          H       0.43923   0.79504   0.85512
H          H       0.40129   0.70660   0.24471
H          H       0.59871   0.20660   0.25529
H          H       0.59871   0.29340   0.75529
H          H       0.40129   0.79340   0.74471
O          O       0.20910   0.79530   0.24790
O          O       0.79090   0.29530   0.25210
O          O       0.79090   0.20470   0.75210
O          O       0.20910   0.70470   0.74790
C          C       0.12470   0.78750   0.23280
C          C       0.87530   0.28750   0.26720
C          C       0.87530   0.21250   0.76720
C          C       0.12470   0.71250   0.73280
H          H       0.08032   0.80594   0.22049
H          H       0.91968   0.30594   0.27951
H          H       0.91968   0.19406   0.77951
H          H       0.08032   0.69406   0.72049
N          N       0.09150   0.75480   0.23260
N          N       0.90850   0.25480   0.26740
N          N       0.90850   0.24520   0.76740
N          N       0.09150   0.74520   0.73260
C          C       0.15670   0.72550   0.25180
C          C       0.84330   0.22550   0.24820
C          C       0.84330   0.27450   0.74820
C          C       0.15670   0.77450   0.75180
H          H       0.21628   0.73406   0.28405
H          H       0.78372   0.23406   0.21595
H          H       0.78372   0.26594   0.71595
H          H       0.21628   0.76594   0.78405
H          H       0.12818   0.70838   0.29273
H          H       0.87182   0.20838   0.20727
H          H       0.87182   0.29162   0.70727
H          H       0.12818   0.79162   0.79273
H          H       0.16933   0.71428   0.19147
H          H       0.83067   0.21428   0.30853
H          H       0.83067   0.28572   0.80853
H          H       0.16933   0.78572   0.69147
O          O       0.44770   0.87460   0.25770
O          O       0.55230   0.37460   0.24230
O          O       0.55230   0.12540   0.74230
O          O       0.44770   0.62540   0.75770
C          C       0.50500   0.86650   0.19970
C          C       0.49500   0.36650   0.30030
C          C       0.49500   0.13350   0.80030
C          C       0.50500   0.63350   0.69970
H          H       0.48355   0.85222   0.14693
H          H       0.51645   0.35222   0.35307
H          H       0.51645   0.14778   0.85307
H          H       0.48355   0.64778   0.64693
N          N       0.59580   0.87690   0.20780
N          N       0.40420   0.37690   0.29220
N          N       0.40420   0.12310   0.79220
N          N       0.59580   0.62310   0.70780
C          C       0.63180   0.89850   0.28790
C          C       0.36820   0.39850   0.21210
C          C       0.36820   0.10150   0.71210
C          C       0.63180   0.60150   0.78790
H          H       0.68535   0.88658   0.32306
H          H       0.31465   0.38658   0.17694
H          H       0.31465   0.11342   0.67694
H          H       0.68535   0.61342   0.82306
H          H       0.65293   0.92102   0.26432
H          H       0.34707   0.42102   0.23568
H          H       0.34707   0.07898   0.73568
H          H       0.65293   0.57898   0.76432
H          H       0.58152   0.90232   0.33048
H          H       0.41848   0.40232   0.16952
H          H       0.41848   0.09768   0.66952
H          H       0.58152   0.59768   0.83048
C          C       0.66120   0.86760   0.13760
C          C       0.33880   0.36760   0.36240
C          C       0.33880   0.13240   0.86240
C          C       0.66120   0.63240   0.63760
H          H       0.67715   0.88854   0.10216
H          H       0.32285   0.38854   0.39784
H          H       0.32285   0.11146   0.89784
H          H       0.67715   0.61146   0.60216
H          H       0.71906   0.85768   0.17015
H          H       0.28094   0.35768   0.32985
H          H       0.28094   0.14232   0.82985
H          H       0.71906   0.64232   0.67015
H          H       0.63145   0.85027   0.09319
H          H       0.36855   0.35027   0.40681
H          H       0.36855   0.14973   0.90681
H          H       0.63145   0.64973   0.59319
O          O       0.36510   0.89720   0.37360
O          O       0.63490   0.39720   0.12640
O          O       0.63490   0.10280   0.62640
O          O       0.36510   0.60280   0.87360
C          C       0.39500   0.91120   0.44790
C          C       0.60500   0.41120   0.05210
C          C       0.60500   0.08880   0.55210
C          C       0.39500   0.58880   0.94790
H          H       0.45472   0.90318   0.47521
H          H       0.54528   0.40318   0.02479
H          H       0.54528   0.09682   0.52479
H          H       0.45472   0.59682   0.97521
N          N       0.35450   0.93620   0.49530
N          N       0.64550   0.43620   0.00470
N          N       0.64550   0.06380   0.50470
N          N       0.35450   0.56380   0.99530
C          C       0.26440   0.95230   0.46200
C          C       0.73560   0.45230   0.03800
C          C       0.73560   0.04770   0.53800
C          C       0.26440   0.54770   0.96200
H          H       0.22426   0.95411   0.51517
H          H       0.77575   0.45411   0.98483
H          H       0.77575   0.04589   0.48483
H          H       0.22426   0.54589   0.01517
H          H       0.27578   0.97574   0.43703
H          H       0.72422   0.47574   0.06297
H          H       0.72422   0.02426   0.56297
H          H       0.27578   0.52426   0.93703
H          H       0.23248   0.93789   0.41130
H          H       0.76752   0.43789   0.08870
H          H       0.76752   0.06211   0.58870
H          H       0.23248   0.56211   0.91130
C          C       0.41300   0.95390   0.56900
C          C       0.58700   0.45390   0.93100
C          C       0.58700   0.04610   0.43100
C          C       0.41300   0.54610   0.06900
H          H       0.45087   0.97195   0.54087
H          H       0.54913   0.47195   0.95913
H          H       0.54913   0.02805   0.45913
H          H       0.45087   0.52805   0.04087
H          H       0.37255   0.96488   0.61414
H          H       0.62745   0.46488   0.88586
H          H       0.62745   0.03512   0.38586
H          H       0.37255   0.53512   0.11414
H          H       0.45524   0.93697   0.60363
H          H       0.54476   0.43697   0.89637
H          H       0.54476   0.06303   0.39637
H          H       0.45524   0.56303   0.10363
O          O       0.13960   0.86080   0.28390
O          O       0.86040   0.36080   0.21610
O          O       0.86040   0.13920   0.71610
O          O       0.13960   0.63920   0.78390
C          C       0.08850   0.88440   0.30860
C          C       0.91150   0.38440   0.19140
C          C       0.91150   0.11560   0.69140
C          C       0.08850   0.61560   0.80860
H          H       0.10759   0.89798   0.36338
H          H       0.89241   0.39798   0.13662
H          H       0.89241   0.10202   0.63662
H          H       0.10759   0.60202   0.86338
N          N       0.00630   0.89090   0.25860
N          N       0.99370   0.39090   0.24140
N          N       0.99370   0.10910   0.74140
N          N       0.00630   0.60910   0.75860
H          H       0.00613   0.91976   0.37676
H          H       0.99387   0.41976   0.12324
H          H       0.99387   0.08024   0.62324
H          H       0.00613   0.58024   0.87676
H          H       0.21618   0.55398   0.47102
H          H       0.78382   0.05398   0.02897
H          H       0.78382   0.44602   0.52897
H          H       0.21618   0.94602   0.97102
C          C       0.21760   0.43510   0.48560
C          C       0.78240   0.93510   0.01440
C          C       0.78240   0.56490   0.51440
C          C       0.21760   0.06490   0.98560
H          H       0.22154   0.41374   0.44767
H          H       0.77846   0.91373   0.05233
H          H       0.77846   0.58627   0.55232
H          H       0.22154   0.08626   0.94768
H          H       0.18707   0.45362   0.44576
H          H       0.81293   0.95362   0.05424
H          H       0.81293   0.54638   0.55424
H          H       0.18707   0.04638   0.94576
