data_crystal

_cell_length_a    15.38860
_cell_length_b    10.70320
_cell_length_c    15.41460
_cell_angle_alpha -104.30000
_cell_angle_beta  94.92000
_cell_angle_gamma 110.23000

_symmetry_space_group_name_Hall 'P 1'
_symmetry_space_group_name_H-M  'P 1'

loop_
_symmetry_equiv_pos_as_xyz
 'x,y,z'

loop_
_atom_site_label
_atom_site_type_symbol
_atom_site_fract_x
_atom_site_fract_y
_atom_site_fract_z
Cd         Cd      0.25000   1.00000   0.50000
O          O       0.11230   0.03440   0.55360
C          C       0.07650   0.01640   0.69840
C          C       0.13170   0.00160   0.62320
C          C       0.11750   0.03820   0.78720
H          H       0.17770   0.03830   0.79970
H          H       0.04300   0.25830   0.99240
C          C       0.06910   0.05980   0.85730
H          H       0.09780   0.07580   0.91680
O          O       0.30060   0.03810   0.36620
O          O       0.36150   0.19360   0.59770
O          O       0.27480   0.30550   0.55800
C          C       0.49570   0.63650   0.85010
C          C       0.38780   0.41530   0.69610
C          C       0.33620   0.29660   0.61030
C          C       0.48120   0.50080   0.84760
C          C       0.42850   0.39130   0.77060
H          H       0.42050   0.30050   0.76910
C          C       0.39740   0.54940   0.70040
H          H       0.36660   0.56630   0.65270
C          C       0.45320   0.66010   0.77600
H          H       0.46190   0.75090   0.77680
O          O       0.13850   0.80640   0.40230
O          O       0.22530   0.69450   0.44200
C          C       0.00420   0.36350   0.14990
C          C       0.11220   0.58470   0.30390
C          C       0.16380   0.70340   0.38970
C          C       0.01880   0.49920   0.15240
C          C       0.07150   0.60870   0.22940
H          H       0.07950   0.69950   0.23090
C          C       0.10250   0.45060   0.29960
H          H       0.13340   0.43370   0.34730
C          C       0.04680   0.33990   0.22400
H          H       0.03810   0.24910   0.22320
O          O       0.19940   0.96190   0.63380
O          O       0.38770   0.96560   0.44640
C          C       0.42360   0.98360   0.30160
C          C       0.36830   0.99840   0.37680
C          C       0.38250   0.96180   0.21280
H          H       0.32230   0.96170   0.20030
H          H       0.45690   0.74170   0.00760
C          C       0.43090   0.94020   0.14270
H          H       0.40230   0.92420   0.08320
C          C       0.21520   0.12600   0.14800
H          H       0.18780   0.15620   0.19630
C          C       0.34940   0.16450   0.07210
C          C       0.44360   0.24240   0.06960
C          C       0.30480   0.20460   0.14510
H          H       0.33780   0.28650   0.19190
H          H       0.04280   0.00330   0.37850
H          H       0.49320   0.51750   0.10230
C          C       0.33860   0.00290   0.92170
C          C       0.43070   0.08800   0.91900
C          C       0.29720   0.04230   0.99790
C          C       0.47890   0.05800   0.84050
C          C       0.48570   0.01270   0.68100
C          C       0.48140   0.20430   0.99360
C          C       0.43720   0.03240   0.75070
H          H       0.37600   0.02860   0.73780
C          C       0.16150   0.99710   0.07830
C          C       0.06920   0.91200   0.08100
C          C       0.20280   0.95770   0.00210
C          C       0.02110   0.94200   0.15950
C          C       0.01430   0.98730   0.31900
C          C       0.01860   0.79570   0.00640
C          C       0.06280   0.96760   0.24930
H          H       0.12390   0.97140   0.26220
C          C       0.28480   0.87400   0.85200
H          H       0.31220   0.84380   0.80370
C          C       0.15070   0.83550   0.92790
C          C       0.05650   0.75760   0.93040
C          C       0.19520   0.79540   0.85490
H          H       0.16220   0.71350   0.80810
H          H       0.45720   0.99670   0.62150
H          H       0.00680   0.48250   0.89770
H          H       0.26820   0.39280   0.58200
H          H       0.23190   0.60720   0.41800
Cd         Cd      0.75000   1.00000   0.50000
O          O       0.61230   0.03440   0.55360
C          C       0.57650   0.01640   0.69840
C          C       0.63170   0.00160   0.62320
C          C       0.61750   0.03820   0.78720
H          H       0.67770   0.03830   0.79970
H          H       0.54300   0.25830   0.99240
C          C       0.56910   0.05980   0.85730
H          H       0.59780   0.07580   0.91680
O          O       0.80060   0.03810   0.36620
O          O       0.86150   0.19360   0.59770
O          O       0.77480   0.30550   0.55800
C          C       0.99570   0.63650   0.85010
C          C       0.88780   0.41530   0.69610
C          C       0.83620   0.29660   0.61030
C          C       0.98120   0.50080   0.84760
C          C       0.92850   0.39130   0.77060
H          H       0.92050   0.30050   0.76910
C          C       0.89740   0.54940   0.70040
H          H       0.86660   0.56630   0.65270
C          C       0.95320   0.66010   0.77600
H          H       0.96190   0.75090   0.77680
O          O       0.63850   0.80640   0.40230
O          O       0.72530   0.69450   0.44200
C          C       0.50420   0.36350   0.14990
C          C       0.61220   0.58470   0.30390
C          C       0.66380   0.70340   0.38970
C          C       0.51880   0.49920   0.15240
C          C       0.57150   0.60870   0.22940
H          H       0.57950   0.69950   0.23090
C          C       0.60250   0.45060   0.29960
H          H       0.63340   0.43370   0.34730
C          C       0.54680   0.33990   0.22400
H          H       0.53810   0.24910   0.22320
O          O       0.69940   0.96190   0.63380
O          O       0.88770   0.96560   0.44640
C          C       0.92360   0.98360   0.30160
C          C       0.86830   0.99840   0.37680
C          C       0.88250   0.96180   0.21280
H          H       0.82230   0.96170   0.20030
H          H       0.95690   0.74170   0.00760
C          C       0.93090   0.94020   0.14270
H          H       0.90230   0.92420   0.08320
C          C       0.71520   0.12600   0.14800
H          H       0.68780   0.15620   0.19630
C          C       0.84940   0.16450   0.07210
C          C       0.94360   0.24240   0.06960
C          C       0.80480   0.20460   0.14510
H          H       0.83780   0.28650   0.19190
H          H       0.54280   0.00330   0.37850
H          H       0.99320   0.51750   0.10230
C          C       0.83860   0.00290   0.92170
C          C       0.93070   0.08800   0.91900
C          C       0.79720   0.04230   0.99790
C          C       0.97890   0.05800   0.84050
C          C       0.98570   0.01270   0.68100
C          C       0.98140   0.20430   0.99360
C          C       0.93720   0.03240   0.75070
H          H       0.87600   0.02860   0.73780
C          C       0.66150   0.99710   0.07830
C          C       0.56920   0.91200   0.08100
C          C       0.70280   0.95770   0.00210
C          C       0.52110   0.94200   0.15950
C          C       0.51430   0.98730   0.31900
C          C       0.51860   0.79570   0.00640
C          C       0.56280   0.96760   0.24930
H          H       0.62390   0.97140   0.26220
C          C       0.78480   0.87400   0.85200
H          H       0.81220   0.84380   0.80370
C          C       0.65070   0.83550   0.92790
C          C       0.55650   0.75760   0.93040
C          C       0.69520   0.79540   0.85490
H          H       0.66220   0.71350   0.80810
H          H       0.95720   0.99670   0.62150
H          H       0.50680   0.48250   0.89770
H          H       0.76820   0.39280   0.58200
H          H       0.73190   0.60720   0.41800
