data_crystal

_cell_length_a    15.97450
_cell_length_b    16.44340
_cell_length_c    23.89520
_cell_angle_alpha 99.15000
_cell_angle_beta  108.27000
_cell_angle_gamma 90.31000

_symmetry_space_group_name_Hall 'P 1'
_symmetry_space_group_name_H-M  'P 1'

loop_
_symmetry_equiv_pos_as_xyz
 'x,y,z'

loop_
_atom_site_label
_atom_site_type_symbol
_atom_site_fract_x
_atom_site_fract_y
_atom_site_fract_z
O          O       0.44140   0.39030   0.06130
O          O       0.35210   0.46010   0.00080
C          C       0.06850   0.17920   0.01270
C          C       0.07170   0.09390   0.00560
C          C       0.36490   0.40250   0.03170
C          C       0.28820   0.34880   0.02850
C          C       0.30090   0.28340   0.06120
H          H       0.35680   0.27670   0.08680
C          C       0.23180   0.22900   0.05600
H          H       0.24200   0.18570   0.07760
C          C       0.14590   0.23830   0.01830
Eu         Eu      0.55630   0.40470   0.15290
C          C       0.14860   0.05220   0.99840
H          H       0.19670   0.08300   0.99700
C          C       0.13390   0.30370   0.98740
H          H       0.07790   0.31130   0.96230
C          C       0.20400   0.35840   0.99290
H          H       0.19360   0.40250   0.97210
Eu         Eu      0.50000   0.50000   0.00000
O          O       0.44390   0.63570   0.02300
C          C       0.24390   0.80350   0.02510
H          H       0.25190   0.84730   0.05650
C          C       0.31390   0.75730   0.02200
H          H       0.36850   0.77050   0.05130
O          O       0.34340   0.47540   0.81470
O          O       0.43720   0.44750   0.89740
O          O       0.37870   0.59220   0.92850
C          C       0.12620   0.16170   0.84490
C          C       0.16530   0.08700   0.84600
H          H       0.22400   0.08590   0.84740
C          C       0.12130   0.01320   0.84530
C          C       0.03160   0.01480   0.84290
C          C       0.03550   0.16500   0.84120
H          H       0.02190   0.28810   0.84550
C          C       0.36420   0.43440   0.85580
C          C       0.30180   0.36530   0.85400
C          C       0.21760   0.35740   0.81410
H          H       0.19950   0.39610   0.78890
C          C       0.15950   0.29320   0.81080
H          H       0.10320   0.28860   0.78300
C          C       0.18390   0.23570   0.84850
C          C       0.26970   0.24300   0.88800
H          H       0.28840   0.20410   0.91300
C          C       0.32700   0.30680   0.89060
H          H       0.38390   0.31070   0.91750
C          C       0.15120   0.97040   0.99360
H          H       0.20190   0.94600   0.98980
C          C       0.07840   0.91790   0.99420
C          C       0.08160   0.83260   0.98710
C          C       0.00810   0.78400   0.98370
H          H       0.01030   0.72690   0.97890
C          C       0.00170   0.95470   0.99780
C          C       0.38390   0.63690   0.97760
C          C       0.30540   0.69200   0.97670
C          C       0.22490   0.67410   0.93430
H          H       0.21800   0.63010   0.90320
C          C       0.15300   0.71980   0.93630
H          H       0.09870   0.70610   0.90670
C          C       0.16130   0.78630   0.98240
Eu         Eu      0.44370   0.59530   0.84710
O          O       0.41530   0.74080   0.88680
O          O       0.31000   0.66850   0.81100
H          H       0.01070   0.89450   0.85160
C          C       0.33870   0.73480   0.84910
C          C       0.28250   0.80500   0.84920
C          C       0.31180   0.87940   0.88810
H          H       0.36860   0.88460   0.91540
C          C       0.25990   0.94430   0.88720
H          H       0.28200   0.99340   0.91340
C          C       0.17330   0.93880   0.84750
C          C       0.14220   0.86530   0.80920
H          H       0.08510   0.86010   0.78240
C          C       0.19600   0.79880   0.81050
H          H       0.17370   0.74920   0.78510
O          O       0.62130   0.40780   0.07150
C          C       0.84880   0.02960   0.00640
H          H       0.79810   0.05400   0.01020
C          C       0.92160   0.08210   0.00580
C          C       0.91840   0.16740   0.01290
C          C       0.99190   0.21600   0.01630
H          H       0.98970   0.27310   0.02110
C          C       0.99830   0.04530   0.00220
C          C       0.61610   0.36310   0.02240
C          C       0.69460   0.30800   0.02330
C          C       0.77510   0.32590   0.06570
H          H       0.78200   0.36990   0.09680
C          C       0.84700   0.28020   0.06370
H          H       0.90130   0.29390   0.09330
C          C       0.83870   0.21370   0.01760
O          O       0.40540   0.47960   0.62250
O          O       0.42070   0.37360   0.55910
C          C       0.04450   0.26220   0.65020
H          H       0.04080   0.31710   0.64520
C          C       0.11820   0.22210   0.64610
C          C       0.12610   0.13840   0.65420
C          C       0.05370   0.09690   0.66300
C          C       0.05460   0.01080   0.66410
C          C       0.20500   0.01120   0.65510
C          C       0.20160   0.09260   0.65270
H          H       0.25060   0.12020   0.64980
C          C       0.38640   0.40730   0.59590
C          C       0.31780   0.35790   0.60790
C          C       0.27880   0.28540   0.56970
H          H       0.29570   0.26710   0.53620
C          C       0.21440   0.24020   0.58160
H          H       0.18830   0.19170   0.55610
C          C       0.18910   0.26760   0.63170
C          C       0.22820   0.34010   0.66990
H          H       0.21120   0.35840   0.70340
C          C       0.29250   0.38520   0.65790
H          H       0.31860   0.43370   0.68350
O          O       0.55610   0.36430   0.97700
C          C       0.75610   0.19650   0.97490
H          H       0.74810   0.15270   0.94350
C          C       0.68610   0.24270   0.97800
H          H       0.63150   0.22950   0.94870
O          O       0.34540   0.37030   0.35740
O          O       0.40260   0.31910   0.43960
C          C       0.02450   0.11930   0.34190
C          C       0.02120   0.03270   0.33360
H          H       0.13650   0.01230   0.31470
C          C       0.34410   0.32350   0.39330
C          C       0.26110   0.26850   0.37770
C          C       0.26050   0.20470   0.40900
H          H       0.31090   0.19550   0.43920
C          C       0.18450   0.15450   0.39500
H          H       0.18510   0.11020   0.41490
C          C       0.10690   0.16920   0.35150
C          C       0.10980   0.23250   0.32080
H          H       0.05950   0.24290   0.29090
C          C       0.18770   0.28130   0.33410
H          H       0.18880   0.32330   0.31250
Eu         Eu      0.55030   0.54670   0.66160
Eu         Eu      0.44970   0.45330   0.33840
Eu         Eu      0.52870   0.38620   0.51350
C          C       0.86610   0.69630   0.01260
H          H       0.92210   0.68870   0.03770
C          C       0.79600   0.64160   0.00710
H          H       0.80640   0.59750   0.02790
C          C       0.85140   0.94780   0.00160
H          H       0.80330   0.91700   0.00300
O          O       0.56280   0.55250   0.10260
Eu         Eu      0.47130   0.61380   0.48650
O          O       0.52450   0.46570   0.72800
O          O       0.38410   0.57060   0.73570
O          O       0.54590   0.49880   0.82540
O          O       0.32580   0.54480   0.46910
O          O       0.46080   0.75560   0.46780
O          O       0.45660   0.65580   0.64940
O          O       0.40930   0.67970   0.55630
O          O       0.55860   0.60970   0.93870
O          O       0.64790   0.53990   0.99920
O          O       0.51330   0.52470   0.55550
C          C       0.84760   0.01570   0.82720
C          C       0.75480   0.01520   0.81450
C          C       0.71310   0.08800   0.80900
H          H       0.65220   0.08710   0.80060
C          C       0.76010   0.16420   0.81560
C          C       0.85120   0.16540   0.82720
C          C       0.89540   0.09080   0.83170
C          C       0.98820   0.08980   0.83840
C          C       0.99020   0.23830   0.84020
C          C       0.90260   0.23940   0.83190
H          H       0.87510   0.28900   0.82920
C          C       0.55620   0.45510   0.78110
C          C       0.60890   0.37990   0.79070
C          C       0.66410   0.36980   0.84750
H          H       0.66610   0.40880   0.88080
C          C       0.71530   0.30260   0.85440
H          H       0.75500   0.29940   0.89180
C          C       0.70910   0.24000   0.80710
C          C       0.65530   0.24880   0.75200
H          H       0.65110   0.20790   0.71940
C          C       0.60540   0.31970   0.74370
H          H       0.56990   0.32510   0.70550
C          C       0.12540   0.88100   0.65350
C          C       0.04850   0.83980   0.65260
H          H       0.04630   0.78250   0.64830
C          C       0.12990   0.96810   0.65840
H          H       0.25560   0.98380   0.65460
C          C       0.40640   0.68770   0.60920
C          C       0.33610   0.73960   0.62190
C          C       0.26310   0.75390   0.57570
H          H       0.25980   0.73400   0.53640
C          C       0.19440   0.79760   0.58740
H          H       0.14410   0.80360   0.55600
C          C       0.20020   0.83110   0.64360
C          C       0.27280   0.81910   0.68850
H          H       0.27840   0.84330   0.72750
C          C       0.33830   0.77190   0.67780
H          H       0.38550   0.76190   0.70990
C          C       0.93150   0.82080   0.98730
C          C       0.92830   0.90610   0.99440
C          C       0.63510   0.59750   0.96830
C          C       0.71180   0.65120   0.97150
C          C       0.69910   0.71660   0.93880
H          H       0.64320   0.72330   0.91320
C          C       0.76820   0.77100   0.94400
H          H       0.75800   0.81430   0.92240
C          C       0.85410   0.76170   0.98170
O          O       0.30510   0.50970   0.29800
O          O       0.39150   0.58770   0.37900
C          C       0.09040   0.98540   0.32180
C          C       0.09140   0.90280   0.32060
H          H       0.13740   0.87420   0.31250
C          C       0.02210   0.85920   0.33190
C          C       0.02370   0.77590   0.33860
C          C       0.31720   0.57170   0.33740
C          C       0.24460   0.62900   0.33690
C          C       0.25670   0.70110   0.37480
H          H       0.31260   0.71860   0.40120
C          C       0.18480   0.74990   0.37440
H          H       0.19370   0.79920   0.40130
C          C       0.10160   0.72660   0.33540
C          C       0.08940   0.65250   0.29750
H          H       0.03300   0.63470   0.27190
C          C       0.15920   0.60360   0.29680
H          H       0.15010   0.55430   0.27000
O          O       0.52490   0.68880   0.81470
O          O       0.59780   0.63890   0.75250
O          O       0.65460   0.62970   0.64260
O          O       0.59740   0.68090   0.56040
O          O       0.69490   0.49030   0.70200
O          O       0.60850   0.41230   0.62100
O          O       0.57930   0.62640   0.44090
O          O       0.48670   0.47530   0.44450
C          C       0.98180   0.94290   0.84540
C          C       0.89680   0.94310   0.83930
H          H       0.86790   0.89590   0.84270
C          C       0.57290   0.69730   0.78530
C          C       0.61270   0.78270   0.78920
C          C       0.66830   0.79390   0.75540
H          H       0.67660   0.75010   0.72820
C          C       0.71080   0.87010   0.76250
H          H       0.74550   0.87780   0.73880
C          C       0.70260   0.93470   0.80430
C          C       0.64440   0.92410   0.83660
H          H       0.63560   0.96790   0.86370
C          C       0.60050   0.84860   0.82800
H          H       0.56160   0.84220   0.84920
O          O       0.47510   0.31120   0.18530
O          O       0.40220   0.36110   0.24750
C          C       0.01820   0.05710   0.15460
C          C       0.10320   0.05690   0.16070
H          H       0.13210   0.10410   0.15730
C          C       0.42710   0.30270   0.21470
C          C       0.38730   0.21730   0.21080
C          C       0.33170   0.20610   0.24460
H          H       0.32340   0.24990   0.27180
C          C       0.28920   0.12990   0.23750
H          H       0.25450   0.12220   0.26120
C          C       0.29740   0.06530   0.19570
C          C       0.35560   0.07590   0.16340
H          H       0.36440   0.03210   0.13630
C          C       0.39950   0.15140   0.17200
H          H       0.43840   0.15780   0.15080
C          C       0.90960   0.01460   0.67820
C          C       0.90860   0.09720   0.67940
H          H       0.86260   0.12580   0.68750
C          C       0.97790   0.14080   0.66810
C          C       0.97630   0.22410   0.66140
C          C       0.68280   0.42830   0.66260
C          C       0.75540   0.37100   0.66310
C          C       0.74330   0.29890   0.62520
H          H       0.68740   0.28140   0.59880
C          C       0.81520   0.25010   0.62560
H          H       0.80630   0.20080   0.59870
C          C       0.89840   0.27340   0.66460
C          C       0.91060   0.34750   0.70250
H          H       0.96700   0.36530   0.72810
C          C       0.84080   0.39640   0.70320
H          H       0.84990   0.44570   0.73000
O          O       0.47550   0.53430   0.27200
O          O       0.61590   0.42940   0.26430
O          O       0.45410   0.50120   0.17460
O          O       0.67420   0.45520   0.53090
O          O       0.53920   0.24440   0.53220
O          O       0.54340   0.34420   0.35060
O          O       0.59070   0.32030   0.44370
C          C       0.15240   0.98430   0.17280
C          C       0.24520   0.98480   0.18550
C          C       0.28690   0.91200   0.19100
H          H       0.34780   0.91290   0.19940
C          C       0.23990   0.83580   0.18440
C          C       0.14880   0.83460   0.17280
C          C       0.10460   0.90920   0.16830
C          C       0.01180   0.91020   0.16160
C          C       0.00980   0.76170   0.15980
C          C       0.09740   0.76060   0.16810
H          H       0.12490   0.71100   0.17080
C          C       0.44380   0.54490   0.21890
C          C       0.39110   0.62010   0.20930
C          C       0.33590   0.63020   0.15250
H          H       0.33390   0.59120   0.11920
C          C       0.28470   0.69740   0.14560
H          H       0.24500   0.70060   0.10820
C          C       0.29090   0.76000   0.19290
C          C       0.34470   0.75120   0.24800
H          H       0.34890   0.79210   0.28060
C          C       0.39460   0.68030   0.25630
H          H       0.43010   0.67490   0.29450
C          C       0.87460   0.11900   0.34650
C          C       0.95150   0.16020   0.34740
H          H       0.95370   0.21750   0.35170
C          C       0.87010   0.03190   0.34160
H          H       0.74440   0.01620   0.34540
C          C       0.59360   0.31230   0.39080
C          C       0.66390   0.26040   0.37810
C          C       0.73690   0.24610   0.42430
H          H       0.74020   0.26600   0.46360
C          C       0.80560   0.20240   0.41260
H          H       0.85590   0.19640   0.44400
C          C       0.79980   0.16890   0.35640
C          C       0.72720   0.18090   0.31150
H          H       0.72160   0.15670   0.27250
C          C       0.66170   0.22810   0.32220
H          H       0.61450   0.23810   0.29010
O          O       0.65660   0.52460   0.18530
O          O       0.58470   0.25920   0.11320
O          O       0.69000   0.33150   0.18900
O          O       0.59460   0.52040   0.37750
C          C       0.97550   0.88070   0.65810
C          C       0.97880   0.96730   0.66640
H          H       0.86350   0.98770   0.68530
C          C       0.65590   0.67650   0.60670
C          C       0.73890   0.73150   0.62230
C          C       0.73950   0.79530   0.59100
H          H       0.68910   0.80450   0.56080
C          C       0.81550   0.84550   0.60500
H          H       0.81490   0.88980   0.58510
C          C       0.89310   0.83080   0.64850
C          C       0.89020   0.76750   0.67920
H          H       0.94050   0.75710   0.70910
C          C       0.81230   0.71870   0.66590
H          H       0.81120   0.67670   0.68750
C          C       0.95550   0.73780   0.34980
H          H       0.95920   0.68290   0.35480
C          C       0.88180   0.77790   0.35390
C          C       0.87390   0.86160   0.34580
C          C       0.94630   0.90310   0.33700
C          C       0.94540   0.98920   0.33590
C          C       0.79500   0.98880   0.34490
C          C       0.79840   0.90740   0.34730
H          H       0.74940   0.87980   0.35020
C          C       0.61360   0.59270   0.40410
C          C       0.68220   0.64210   0.39210
C          C       0.72120   0.71460   0.43030
H          H       0.70430   0.73290   0.46380
C          C       0.78560   0.75980   0.41840
H          H       0.81170   0.80830   0.44390
C          C       0.81090   0.73240   0.36830
C          C       0.77180   0.65990   0.33010
H          H       0.78880   0.64160   0.29660
C          C       0.70750   0.61480   0.34210
H          H       0.68140   0.56630   0.31650
H          H       0.98930   0.10550   0.14840
C          C       0.66130   0.26520   0.15090
C          C       0.71750   0.19500   0.15080
C          C       0.68820   0.12060   0.11190
H          H       0.63140   0.11540   0.08460
C          C       0.74010   0.05570   0.11280
H          H       0.71800   0.00660   0.08660
C          C       0.82670   0.06120   0.15250
C          C       0.85780   0.13470   0.19080
H          H       0.91490   0.13990   0.21760
C          C       0.80400   0.20120   0.18950
H          H       0.82630   0.25080   0.21490
C          C       0.87380   0.83830   0.15510
C          C       0.83470   0.91300   0.15400
H          H       0.77600   0.91410   0.15260
C          C       0.87870   0.98680   0.15470
C          C       0.96840   0.98520   0.15710
C          C       0.96450   0.83500   0.15880
H          H       0.97810   0.71190   0.15450
C          C       0.63580   0.56560   0.14420
C          C       0.69820   0.63470   0.14600
C          C       0.78240   0.64260   0.18590
H          H       0.80050   0.60390   0.21110
C          C       0.84050   0.70680   0.18920
H          H       0.89680   0.71140   0.21700
C          C       0.81610   0.76430   0.15150
C          C       0.73030   0.75700   0.11200
H          H       0.71160   0.79590   0.08700
C          C       0.67300   0.69320   0.10940
H          H       0.61610   0.68930   0.08250
H          H       0.43470   0.75550   0.42570
H          H       0.41950   0.78880   0.49200
H          H       0.58440   0.21880   0.51810
H          H       0.55580   0.24430   0.58050
H          H       0.69280   0.43980   0.49640
H          H       0.66950   0.52250   0.53910
H          H       0.28190   0.56700   0.43860
H          H       0.32810   0.47820   0.45460
H          H       0.67900   0.42700   0.27670
H          H       0.59850   0.49060   0.28200
H          H       0.40910   0.61210   0.72060
H          H       0.40150   0.50940   0.71800
