data_crystal

_cell_length_a    11.29400
_cell_length_b    14.39710
_cell_length_c    15.96840
_cell_angle_alpha 81.34000
_cell_angle_beta  77.64000
_cell_angle_gamma 77.23000

_symmetry_space_group_name_Hall 'P 1'
_symmetry_space_group_name_H-M  'P 1'

loop_
_symmetry_equiv_pos_as_xyz
 'x,y,z'

loop_
_atom_site_label
_atom_site_type_symbol
_atom_site_fract_x
_atom_site_fract_y
_atom_site_fract_z
H          H       0.58030   0.28980   0.64620
H          H       0.09680   0.59290   0.66660
O          O       0.74750   0.28840   0.82080
C          C       0.11360   0.94110   0.22850
C          C       0.35860   0.74300   0.30400
C          C       0.26270   0.82470   0.30500
C          C       0.21900   0.86440   0.22720
C          C       0.27570   0.82380   0.14860
C          C       0.05320   0.97840   0.30800
O          O       0.59760   0.20650   0.88120
C          C       0.95580   0.04630   0.15550
C          C       0.10730   0.94390   0.38310
H          H       0.07240   0.97250   0.43500
C          C       0.39230   0.68850   0.38530
C          C       0.89820   0.08620   0.07900
C          C       0.37240   0.74270   0.14900
C          C       0.94230   0.04720   0.31020
C          C       0.41290   0.70460   0.22610
H          H       0.47940   0.65100   0.22560
C          C       0.06670   0.97760   0.15120
C          C       0.89490   0.07800   0.23480
H          H       0.81830   0.12210   0.23750
C          C       0.70180   0.22660   0.87630
C          C       0.77470   0.17420   0.94360
C          C       0.51490   0.65680   0.39600
H          H       0.57990   0.67340   0.35160
C          C       0.41650   0.68920   0.07160
C          C       0.87560   0.09250   0.38990
C          C       0.13110   0.93870   0.07260
H          H       0.10340   0.96450   0.02030
C          C       0.20690   0.87140   0.38160
H          H       0.24090   0.85080   0.43230
C          C       0.95940   0.13470   0.00560
H          H       0.04380   0.13740   0.00130
C          C       0.71490   0.12260   0.01520
H          H       0.63200   0.11670   0.01790
C          C       0.77510   0.08000   0.08260
H          H       0.73260   0.04640   0.13150
C          C       0.23050   0.86600   0.07140
H          H       0.27130   0.84240   0.01810
C          C       0.89850   0.17900   0.93890
H          H       0.94090   0.21260   0.88990
C          C       0.53900   0.66930   0.02990
H          H       0.59980   0.69210   0.04970
C          C       0.29890   0.66230   0.45150
H          H       0.21500   0.68300   0.44530
C          C       0.33050   0.65470   0.04090
H          H       0.24610   0.66750   0.06850
O          O       0.83270   0.43410   0.68800
H          H       0.89140   0.39300   0.69880
H          H       0.83900   0.48220   0.70740
O          O       0.50460   0.33030   0.76780
H          H       0.53180   0.28880   0.80900
H          H       0.51570   0.29480   0.72660
C          C       0.44870   0.57500   0.53700
C          C       0.48700   0.58240   0.92870
C          C       0.47390   0.51130   0.61810
C          C       0.67750   0.23750   0.61100
C          C       0.54310   0.60100   0.47120
H          H       0.62690   0.58060   0.47780
C          C       0.51410   0.52600   0.85250
C          C       0.57410   0.61610   0.95920
H          H       0.65850   0.60290   0.93180
C          C       0.32640   0.60650   0.52590
H          H       0.26130   0.58950   0.57000
C          C       0.74680   0.18580   0.53430
C          C       0.36470   0.60210   0.97090
H          H       0.30380   0.57910   0.95150
O          O       0.57380   0.21850   0.64620
O          O       0.92390   0.56480   0.75280
C          C       0.55780   0.91210   0.34510
C          C       0.31280   0.11020   0.26960
C          C       0.40870   0.02850   0.26860
C          C       0.45240   0.98880   0.34640
C          C       0.39570   0.02940   0.42500
C          C       0.61820   0.87480   0.26560
O          O       0.07380   0.64670   0.69240
C          C       0.71560   0.80690   0.41810
C          C       0.56410   0.90930   0.19050
H          H       0.59900   0.88070   0.13860
C          C       0.27910   0.16470   0.18830
C          C       0.77320   0.76700   0.49460
C          C       0.29900   0.11050   0.42460
C          C       0.72910   0.80600   0.26340
C          C       0.25850   0.14860   0.34750
H          H       0.19200   0.20220   0.34800
C          C       0.60470   0.87560   0.42240
C          C       0.77650   0.77520   0.33880
H          H       0.85310   0.73110   0.33610
C          C       0.96960   0.62660   0.69730
C          C       0.89670   0.67900   0.63000
C          C       0.15650   0.19640   0.17750
H          H       0.09150   0.17980   0.22200
C          C       0.25480   0.16410   0.50200
C          C       0.79580   0.76070   0.18370
C          C       0.54030   0.91450   0.50100
H          H       0.56800   0.88870   0.55330
C          C       0.46450   0.98180   0.19200
H          H       0.43050   0.00240   0.14130
C          C       0.71200   0.71850   0.56800
H          H       0.62760   0.71580   0.57230
C          C       0.95650   0.73060   0.55840
H          H       0.03940   0.73650   0.55570
C          C       0.89630   0.77320   0.49100
H          H       0.93880   0.80680   0.44210
C          C       0.44090   0.98720   0.50220
H          H       0.40010   0.01080   0.55550
C          C       0.77290   0.67420   0.63470
H          H       0.73050   0.64060   0.68370
C          C       0.13240   0.18390   0.54370
H          H       0.07160   0.16110   0.52390
C          C       0.37250   0.19100   0.12210
H          H       0.45640   0.17020   0.12830
C          C       0.34090   0.19850   0.53270
H          H       0.42530   0.18570   0.50510
O          O       0.83870   0.41910   0.88560
H          H       0.78000   0.46020   0.87480
H          H       0.83240   0.37100   0.86620
O          O       0.16680   0.52290   0.80580
H          H       0.13960   0.56440   0.76460
H          H       0.15570   0.55840   0.84700
O          O       0.08900   0.36090   0.94020
O          O       0.04680   0.36340   0.75280
O          O       0.94330   0.55670   0.93960
O          O       0.24920   0.33490   0.74920
O          O       0.29000   0.37200   0.91040
C          C       0.22270   0.27820   0.03660
C          C       0.18440   0.27080   0.64480
C          C       0.19750   0.34190   0.95550
C          C       0.99390   0.61570   0.96260
C          C       0.12830   0.25220   0.10240
H          H       0.04450   0.27260   0.09580
C          C       0.15730   0.32730   0.72110
C          C       0.09730   0.23710   0.61440
H          H       0.01290   0.25030   0.64180
C          C       0.34500   0.24670   0.04770
H          H       0.41010   0.26370   0.00360
C          C       0.92460   0.66740   0.03930
C          C       0.88720   0.79980   0.12600
H          H       0.90580   0.85810   0.13560
C          C       0.95170   0.75420   0.05410
H          H       0.01410   0.78140   0.01490
C          C       0.30670   0.25110   0.60270
H          H       0.36760   0.27410   0.62210
O          O       0.09760   0.63470   0.92740
Mg         Mg      0.33570   0.42660   0.78680
Mg         Mg      0.66360   0.39360   0.72410
Mg         Mg      0.00780   0.45960   0.84950
O          O       0.58240   0.49230   0.63340
O          O       0.62460   0.48980   0.82080
O          O       0.72810   0.29650   0.63400
O          O       0.42220   0.51830   0.82440
O          O       0.38140   0.48120   0.66320
C          C       0.76530   0.07100   0.43650
H          H       0.73350   0.02180   0.42050
C          C       0.69910   0.12000   0.50700
H          H       0.62060   0.10700   0.53550
C          C       0.85690   0.20810   0.49040
H          H       0.88960   0.25530   0.50870
C          C       0.92110   0.16150   0.41870
H          H       0.99760   0.17730   0.38900
C          C       0.81450   0.64510   0.08320
H          H       0.78180   0.59790   0.06490
C          C       0.75030   0.69170   0.15490
H          H       0.67380   0.67590   0.18460
