data_crystal

_cell_length_a    19.47460
_cell_length_b    15.15420
_cell_length_c    21.16950
_cell_angle_alpha 90.00000
_cell_angle_beta  98.76000
_cell_angle_gamma 90.00000

_symmetry_space_group_name_Hall 'P 1'
_symmetry_space_group_name_H-M  'P 1'

loop_
_symmetry_equiv_pos_as_xyz
 'x,y,z'

loop_
_atom_site_label
_atom_site_type_symbol
_atom_site_fract_x
_atom_site_fract_y
_atom_site_fract_z
C          C       0.09310   0.75570   0.27450
H          H       0.06710   0.79390   0.24190
H          H       0.09350   0.69530   0.25810
H          H       0.14090   0.77720   0.28490
C          C       0.05320   0.84750   0.35340
H          H       0.09790   0.86840   0.37590
H          H       0.01850   0.84890   0.38250
H          H       0.03790   0.88590   0.31670
N          N       0.06070   0.75680   0.33100
H          H       0.08710   0.72470   0.36270
H          H       0.01760   0.73080   0.32240
C          C       0.21050   0.33610   0.16330
C          C       0.22730   0.41760   0.12810
C          C       0.23290   0.49640   0.16240
H          H       0.22550   0.49590   0.20570
C          C       0.24870   0.57500   0.13530
C          C       0.26050   0.65350   0.17920
C          C       0.25530   0.57840   0.06970
C          C       0.26580   0.65990   0.03790
H          H       0.26980   0.71330   0.06170
C          C       0.22980   0.33810   0.02520
H          H       0.22280   0.28310   0.04480
C          C       0.23540   0.41700   0.06330
C          C       0.24770   0.49890   0.03370
C          C       0.09170   0.39560   0.33690
C          C       0.04410   0.45230   0.37030
C          C       0.49980   0.51090   0.33380
H          H       0.49990   0.51430   0.28900
C          C       0.45500   0.56470   0.36200
C          C       0.40430   0.62250   0.31970
C          C       0.04540   0.44700   0.43680
C          C       0.09010   0.38690   0.47670
H          H       0.12010   0.34910   0.45770
C          C       0.40980   0.61700   0.45950
H          H       0.37940   0.65710   0.43470
C          C       0.45450   0.56180   0.42840
C          C       0.49980   0.50240   0.46600
O          O       0.23720   0.26450   0.15310
O          O       0.16900   0.35000   0.20300
O          O       0.22250   0.66350   0.22020
O          O       0.31240   0.70150   0.17180
O          O       0.06250   0.33650   0.29950
O          O       0.15470   0.40950   0.34630
O          O       0.34250   0.60310   0.31300
O          O       0.43000   0.68770   0.29280
O          O       0.30630   0.08540   0.14100
H          H       0.32710   0.11060   0.11340
H          H       0.31740   0.03110   0.14360
Li         Li      0.24820   0.15030   0.18910
Zn         Zn      0.13460   0.27100   0.26170
C          C       0.28940   0.66390   0.83670
C          C       0.27270   0.58240   0.87190
C          C       0.26710   0.50360   0.83760
H          H       0.27450   0.50410   0.79430
C          C       0.25120   0.42500   0.86470
C          C       0.23960   0.34650   0.82080
C          C       0.24470   0.42160   0.93030
C          C       0.23410   0.34010   0.96210
H          H       0.23020   0.28670   0.93830
C          C       0.27020   0.66190   0.97480
H          H       0.27720   0.71690   0.95520
C          C       0.26460   0.58300   0.93670
C          C       0.25240   0.50110   0.96630
O          O       0.26270   0.73550   0.84690
O          O       0.33100   0.65000   0.79700
O          O       0.27760   0.33650   0.77980
O          O       0.18770   0.29850   0.82820
C          C       0.40830   0.60440   0.66310
C          C       0.45590   0.54770   0.62970
C          C       0.00020   0.48910   0.66620
H          H       0.00010   0.48570   0.71100
C          C       0.04500   0.43530   0.63800
C          C       0.09560   0.37750   0.68030
C          C       0.45460   0.55300   0.56320
C          C       0.40990   0.61310   0.52330
H          H       0.37990   0.65090   0.54230
C          C       0.09020   0.38300   0.54050
H          H       0.12060   0.34290   0.56530
C          C       0.04550   0.43820   0.57160
C          C       0.00020   0.49760   0.53400
O          O       0.43750   0.66350   0.70050
O          O       0.34530   0.59050   0.65370
O          O       0.15750   0.39690   0.68700
O          O       0.06990   0.31230   0.70720
Zn         Zn      0.36540   0.72900   0.73830
O          O       0.19370   0.58540   0.35900
H          H       0.17290   0.61060   0.38660
H          H       0.18270   0.53110   0.35640
Li         Li      0.25170   0.65030   0.31090
O          O       0.26270   0.76450   0.34690
O          O       0.27760   0.16350   0.27980
O          O       0.18770   0.20150   0.32820
O          O       0.31240   0.79850   0.67180
O          O       0.15750   0.10310   0.18700
O          O       0.06990   0.18770   0.20720
O          O       0.43000   0.81230   0.79280
Li         Li      0.25170   0.84970   0.81090
Li         Li      0.24820   0.34970   0.68910
Zn         Zn      0.36540   0.77100   0.23830
Zn         Zn      0.13460   0.22900   0.76170
C          C       0.40680   0.25570   0.22550
H          H       0.43290   0.29390   0.25810
H          H       0.40660   0.19530   0.24190
H          H       0.35900   0.27720   0.21510
C          C       0.44690   0.34750   0.14660
H          H       0.40210   0.36840   0.12410
H          H       0.48140   0.34890   0.11750
H          H       0.46210   0.38590   0.18330
N          N       0.43940   0.25680   0.16900
H          H       0.41290   0.22470   0.13730
H          H       0.48240   0.23080   0.17760
C          C       0.28940   0.83610   0.33670
C          C       0.27270   0.91760   0.37190
C          C       0.26710   0.99640   0.33760
H          H       0.27450   0.99590   0.29430
C          C       0.25120   0.07500   0.36470
C          C       0.23960   0.15350   0.32080
C          C       0.24470   0.07840   0.43030
C          C       0.23410   0.15990   0.46210
H          H       0.23020   0.21330   0.43830
C          C       0.27020   0.83810   0.47480
H          H       0.27720   0.78310   0.45520
C          C       0.26460   0.91700   0.43670
C          C       0.25240   0.99890   0.46630
C          C       0.40830   0.89560   0.16310
C          C       0.45590   0.95230   0.12970
C          C       0.00030   0.01090   0.16620
H          H       0.00010   0.01430   0.21100
C          C       0.04500   0.06470   0.13800
C          C       0.09560   0.12250   0.18030
C          C       0.45460   0.94700   0.06320
C          C       0.40990   0.88690   0.02330
H          H       0.37990   0.84910   0.04230
C          C       0.09020   0.11700   0.04050
H          H       0.12060   0.15710   0.06530
C          C       0.04550   0.06180   0.07160
C          C       0.00030   0.00240   0.03400
O          O       0.33100   0.85000   0.29700
O          O       0.43750   0.83650   0.20050
O          O       0.34530   0.90950   0.15370
C          C       0.21050   0.16390   0.66330
C          C       0.22730   0.08240   0.62810
C          C       0.23290   0.00360   0.66240
H          H       0.22550   0.00410   0.70570
C          C       0.24870   0.92500   0.63530
C          C       0.26050   0.84650   0.67920
C          C       0.25530   0.92160   0.56970
C          C       0.26580   0.84010   0.53790
H          H       0.26980   0.78670   0.56170
C          C       0.22980   0.16190   0.52520
H          H       0.22280   0.21690   0.54480
C          C       0.23540   0.08300   0.56330
C          C       0.24770   0.00110   0.53370
O          O       0.23720   0.23550   0.65310
O          O       0.16900   0.15000   0.70300
O          O       0.22250   0.83650   0.72020
C          C       0.09170   0.10440   0.83690
C          C       0.04410   0.04770   0.87030
C          C       0.49980   0.98910   0.83380
H          H       0.49990   0.98570   0.78900
C          C       0.45500   0.93530   0.86200
C          C       0.40430   0.87750   0.81970
C          C       0.04540   0.05300   0.93680
C          C       0.09010   0.11310   0.97670
H          H       0.12010   0.15090   0.95770
C          C       0.40980   0.88300   0.95950
H          H       0.37940   0.84290   0.93470
C          C       0.45450   0.93820   0.92840
C          C       0.49980   0.99760   0.96600
O          O       0.06250   0.16350   0.79950
O          O       0.15470   0.09050   0.84630
O          O       0.34250   0.89690   0.81300
C          C       0.40680   0.24430   0.72550
H          H       0.43290   0.20610   0.75810
H          H       0.40660   0.30470   0.74190
H          H       0.35900   0.22280   0.71510
C          C       0.44690   0.15250   0.64660
H          H       0.40210   0.13160   0.62410
H          H       0.48140   0.15110   0.61750
H          H       0.46210   0.11410   0.68330
N          N       0.43940   0.24320   0.66900
H          H       0.41290   0.27530   0.63730
H          H       0.48240   0.26920   0.67760
O          O       0.19370   0.91460   0.85900
H          H       0.17290   0.88940   0.88660
H          H       0.18270   0.96890   0.85640
O          O       0.30630   0.41460   0.64100
H          H       0.32710   0.38940   0.61340
H          H       0.31740   0.46890   0.64360
C          C       0.09310   0.74430   0.77450
H          H       0.06710   0.70610   0.74190
H          H       0.09350   0.80470   0.75810
H          H       0.14090   0.72280   0.78490
C          C       0.05320   0.65250   0.85340
H          H       0.09790   0.63160   0.87590
H          H       0.01850   0.65110   0.88250
H          H       0.03790   0.61410   0.81670
N          N       0.06070   0.74320   0.83100
H          H       0.08710   0.77530   0.86270
H          H       0.01760   0.76920   0.82240
C          C       0.59310   0.75570   0.27450
H          H       0.56710   0.79390   0.24190
H          H       0.59350   0.69530   0.25810
H          H       0.64100   0.77720   0.28490
C          C       0.55320   0.84750   0.35340
H          H       0.59790   0.86840   0.37590
H          H       0.51850   0.84890   0.38250
H          H       0.53800   0.88590   0.31670
N          N       0.56060   0.75680   0.33100
H          H       0.58700   0.72470   0.36270
H          H       0.51750   0.73080   0.32240
C          C       0.71060   0.33610   0.16330
C          C       0.72730   0.41760   0.12810
C          C       0.73290   0.49640   0.16240
H          H       0.72550   0.49590   0.20570
C          C       0.74880   0.57500   0.13530
C          C       0.76050   0.65350   0.17920
C          C       0.75530   0.57840   0.06970
C          C       0.76580   0.65990   0.03790
H          H       0.76980   0.71330   0.06170
C          C       0.72980   0.33810   0.02520
H          H       0.72280   0.28310   0.04480
C          C       0.73530   0.41700   0.06330
C          C       0.74770   0.49890   0.03370
C          C       0.59170   0.39560   0.33690
C          C       0.54410   0.45230   0.37030
C          C       0.99980   0.51090   0.33380
H          H       0.99990   0.51430   0.28900
C          C       0.95500   0.56470   0.36200
C          C       0.90430   0.62250   0.31970
C          C       0.54540   0.44700   0.43680
C          C       0.59000   0.38690   0.47670
H          H       0.62010   0.34910   0.45770
C          C       0.90980   0.61700   0.45950
H          H       0.87940   0.65710   0.43470
C          C       0.95450   0.56180   0.42840
C          C       0.99980   0.50240   0.46600
O          O       0.73720   0.26450   0.15310
O          O       0.66900   0.35000   0.20300
O          O       0.72250   0.66350   0.22020
O          O       0.81240   0.70150   0.17180
O          O       0.56250   0.33650   0.29950
O          O       0.65470   0.40950   0.34630
O          O       0.84250   0.60310   0.31300
O          O       0.93010   0.68770   0.29280
O          O       0.80630   0.08540   0.14100
H          H       0.82710   0.11060   0.11340
H          H       0.81740   0.03110   0.14360
Li         Li      0.74820   0.15030   0.18910
Zn         Zn      0.63460   0.27100   0.26170
C          C       0.78940   0.66390   0.83670
C          C       0.77270   0.58240   0.87190
C          C       0.76710   0.50360   0.83760
H          H       0.77450   0.50410   0.79430
C          C       0.75120   0.42500   0.86470
C          C       0.73960   0.34650   0.82080
C          C       0.74470   0.42160   0.93030
C          C       0.73410   0.34010   0.96210
H          H       0.73020   0.28670   0.93830
C          C       0.77020   0.66190   0.97480
H          H       0.77720   0.71690   0.95520
C          C       0.76470   0.58300   0.93670
C          C       0.75240   0.50110   0.96630
O          O       0.76280   0.73550   0.84690
O          O       0.83100   0.65000   0.79700
O          O       0.77750   0.33650   0.77980
O          O       0.68760   0.29850   0.82820
C          C       0.90830   0.60440   0.66310
C          C       0.95590   0.54770   0.62970
C          C       0.50020   0.48910   0.66620
H          H       0.50010   0.48570   0.71100
C          C       0.54500   0.43530   0.63800
C          C       0.59570   0.37750   0.68030
C          C       0.95460   0.55300   0.56320
C          C       0.91000   0.61310   0.52330
H          H       0.87990   0.65090   0.54230
C          C       0.59020   0.38300   0.54050
H          H       0.62070   0.34290   0.56530
C          C       0.54550   0.43820   0.57160
C          C       0.50020   0.49760   0.53400
O          O       0.93750   0.66350   0.70050
O          O       0.84530   0.59050   0.65370
O          O       0.65750   0.39690   0.68700
O          O       0.56990   0.31230   0.70720
Zn         Zn      0.86540   0.72900   0.73830
O          O       0.69370   0.58540   0.35900
H          H       0.67290   0.61060   0.38660
H          H       0.68260   0.53110   0.35640
Li         Li      0.75170   0.65030   0.31090
O          O       0.76280   0.76450   0.34690
O          O       0.77750   0.16350   0.27980
O          O       0.68760   0.20150   0.32820
O          O       0.81240   0.79850   0.67180
O          O       0.65750   0.10310   0.18700
O          O       0.56990   0.18770   0.20720
O          O       0.93010   0.81230   0.79280
Li         Li      0.75170   0.84970   0.81090
Li         Li      0.74820   0.34970   0.68910
Zn         Zn      0.86540   0.77100   0.23830
Zn         Zn      0.63460   0.22900   0.76170
C          C       0.90680   0.25570   0.22550
H          H       0.93290   0.29390   0.25810
H          H       0.90650   0.19530   0.24190
H          H       0.85900   0.27720   0.21510
C          C       0.94680   0.34750   0.14660
H          H       0.90210   0.36840   0.12410
H          H       0.98140   0.34890   0.11750
H          H       0.96210   0.38590   0.18330
N          N       0.93940   0.25680   0.16900
H          H       0.91290   0.22470   0.13730
H          H       0.98250   0.23080   0.17760
C          C       0.78940   0.83610   0.33670
C          C       0.77270   0.91760   0.37190
C          C       0.76710   0.99640   0.33760
H          H       0.77450   0.99590   0.29430
C          C       0.75120   0.07500   0.36470
C          C       0.73960   0.15350   0.32080
C          C       0.74470   0.07840   0.43030
C          C       0.73410   0.15990   0.46210
H          H       0.73020   0.21330   0.43830
C          C       0.77020   0.83810   0.47480
H          H       0.77720   0.78310   0.45520
C          C       0.76470   0.91700   0.43670
C          C       0.75240   0.99890   0.46630
C          C       0.90830   0.89560   0.16310
C          C       0.95590   0.95230   0.12970
C          C       0.50020   0.01090   0.16620
H          H       0.50010   0.01430   0.21100
C          C       0.54500   0.06470   0.13800
C          C       0.59570   0.12250   0.18030
C          C       0.95460   0.94700   0.06320
C          C       0.91000   0.88690   0.02330
H          H       0.87990   0.84910   0.04230
C          C       0.59020   0.11700   0.04050
H          H       0.62070   0.15710   0.06530
C          C       0.54550   0.06180   0.07160
C          C       0.50020   0.00240   0.03400
O          O       0.83100   0.85000   0.29700
O          O       0.93750   0.83650   0.20050
O          O       0.84530   0.90950   0.15370
C          C       0.71060   0.16390   0.66330
C          C       0.72730   0.08240   0.62810
C          C       0.73290   0.00360   0.66240
H          H       0.72550   0.00410   0.70570
C          C       0.74880   0.92500   0.63530
C          C       0.76050   0.84650   0.67920
C          C       0.75530   0.92160   0.56970
C          C       0.76580   0.84010   0.53790
H          H       0.76980   0.78670   0.56170
C          C       0.72980   0.16190   0.52520
H          H       0.72280   0.21690   0.54480
C          C       0.73530   0.08300   0.56330
C          C       0.74770   0.00110   0.53370
O          O       0.73720   0.23550   0.65310
O          O       0.66900   0.15000   0.70300
O          O       0.72250   0.83650   0.72020
C          C       0.59170   0.10440   0.83690
C          C       0.54410   0.04770   0.87030
C          C       0.99980   0.98910   0.83380
H          H       0.99990   0.98570   0.78900
C          C       0.95500   0.93530   0.86200
C          C       0.90430   0.87750   0.81970
C          C       0.54540   0.05300   0.93680
C          C       0.59000   0.11310   0.97670
H          H       0.62010   0.15090   0.95770
C          C       0.90980   0.88300   0.95950
H          H       0.87940   0.84290   0.93470
C          C       0.95450   0.93820   0.92840
C          C       0.99980   0.99760   0.96600
O          O       0.56250   0.16350   0.79950
O          O       0.65470   0.09050   0.84630
O          O       0.84250   0.89690   0.81300
C          C       0.90680   0.24430   0.72550
H          H       0.93290   0.20610   0.75810
H          H       0.90650   0.30470   0.74190
H          H       0.85900   0.22280   0.71510
C          C       0.94680   0.15250   0.64660
H          H       0.90210   0.13160   0.62410
H          H       0.98140   0.15110   0.61750
H          H       0.96210   0.11410   0.68330
N          N       0.93940   0.24320   0.66900
H          H       0.91290   0.27530   0.63730
H          H       0.98250   0.26920   0.67760
O          O       0.69370   0.91460   0.85900
H          H       0.67290   0.88940   0.88660
H          H       0.68260   0.96890   0.85640
O          O       0.80630   0.41460   0.64100
H          H       0.82710   0.38940   0.61340
H          H       0.81740   0.46890   0.64360
C          C       0.59310   0.74430   0.77450
H          H       0.56710   0.70610   0.74190
H          H       0.59350   0.80470   0.75810
H          H       0.64100   0.72280   0.78490
C          C       0.55320   0.65250   0.85340
H          H       0.59790   0.63160   0.87590
H          H       0.51850   0.65110   0.88250
H          H       0.53800   0.61410   0.81670
N          N       0.56060   0.74320   0.83100
H          H       0.58700   0.77530   0.86270
H          H       0.51750   0.76920   0.82240
