data_crystal

_cell_length_a    25.01410
_cell_length_b    21.23830
_cell_length_c    10.03240
_cell_angle_alpha 90.00000
_cell_angle_beta  97.17000
_cell_angle_gamma 90.00000

_symmetry_space_group_name_Hall 'P 1'
_symmetry_space_group_name_H-M  'P 1'

loop_
_symmetry_equiv_pos_as_xyz
 'x,y,z'

loop_
_atom_site_label
_atom_site_type_symbol
_atom_site_fract_x
_atom_site_fract_y
_atom_site_fract_z
N          N       0.42160   0.30420   0.63460
H          H       0.40430   0.29780   0.54920
H          H       0.40560   0.33840   0.66960
C          C       0.47470   0.31980   0.62400
H          H       0.48120   0.36370   0.65120
H          H       0.48180   0.31450   0.53070
H          H       0.49880   0.29230   0.68250
C          C       0.41220   0.25070   0.71300
H          H       0.37930   0.25710   0.75530
H          H       0.44280   0.24470   0.78350
H          H       0.40810   0.21320   0.65600
N          N       0.57840   0.30420   0.36540
H          H       0.59570   0.29780   0.45080
H          H       0.59440   0.33840   0.33040
C          C       0.52530   0.31980   0.37600
H          H       0.51880   0.36370   0.34880
H          H       0.51820   0.31450   0.46930
H          H       0.50120   0.29230   0.31750
C          C       0.58780   0.25070   0.28700
H          H       0.62070   0.25710   0.24470
H          H       0.55720   0.24470   0.21650
H          H       0.59190   0.21320   0.34400
C          C       0.28790   0.17200   0.09850
C          C       0.27190   0.13320   0.97520
C          C       0.25790   0.16510   0.85520
H          H       0.26000   0.20970   0.85430
C          C       0.24090   0.13360   0.73690
C          C       0.22620   0.17360   0.61480
C          C       0.23980   0.06700   0.73400
C          C       0.22320   0.03160   0.61400
H          H       0.21190   0.05350   0.53270
C          C       0.28420   0.03200   0.09860
H          H       0.29420   0.05380   0.18060
C          C       0.26970   0.06690   0.97900
C          C       0.25440   0.03400   0.85630
C          C       0.40620   0.17180   0.38870
C          C       0.45470   0.13320   0.44310
C          C       0.50000   0.16480   0.50000
H          H       0.50000   0.20950   0.50000
C          C       0.40870   0.03190   0.37810
H          H       0.37810   0.05370   0.33520
C          C       0.45360   0.06730   0.44090
C          C       0.50000   0.03370   0.50000
C          C       0.39720   0.38390   0.23160
C          C       0.42020   0.44290   0.17840
C          C       0.40330   0.50000   0.22450
H          H       0.37910   0.50000   0.29040
C          C       0.48050   0.38420   0.04100
H          H       0.46670   0.34530   0.06830
C          C       0.45980   0.44160   0.08730
C          C       0.47980   0.50000   0.04490
O          O       0.32210   0.21500   0.08730
O          O       0.26590   0.16180   0.20170
O          O       0.19810   0.22320   0.63110
O          O       0.41630   0.22130   0.32370
O          O       0.36090   0.15540   0.40970
O          O       0.38020   0.34180   0.14620
O          O       0.39480   0.37880   0.35310
Zn         Zn      0.35420   0.26900   0.23690
C          C       0.28790   0.82800   0.09850
C          C       0.27190   0.86680   0.97520
C          C       0.25790   0.83490   0.85520
H          H       0.26000   0.79030   0.85430
C          C       0.24090   0.86640   0.73690
C          C       0.22620   0.82640   0.61480
C          C       0.23980   0.93300   0.73400
C          C       0.22320   0.96840   0.61400
H          H       0.21190   0.94650   0.53270
C          C       0.28420   0.96800   0.09860
H          H       0.29420   0.94620   0.18060
C          C       0.26970   0.93310   0.97900
C          C       0.25440   0.96600   0.85630
O          O       0.32210   0.78500   0.08730
O          O       0.26590   0.83820   0.20170
O          O       0.19810   0.77680   0.63110
O          O       0.24240   0.83960   0.50670
C          C       0.59380   0.17180   0.61130
C          C       0.54530   0.13320   0.55690
C          C       0.59130   0.03190   0.62190
H          H       0.62190   0.05370   0.66480
C          C       0.54640   0.06730   0.55910
O          O       0.58370   0.22130   0.67630
O          O       0.63910   0.15540   0.59030
C          C       0.59380   0.82820   0.61130
C          C       0.54530   0.86680   0.55690
C          C       0.50000   0.83520   0.50000
H          H       0.50000   0.79050   0.50000
C          C       0.59130   0.96810   0.62190
H          H       0.62190   0.94630   0.66480
C          C       0.54640   0.93260   0.55910
C          C       0.50000   0.96630   0.50000
O          O       0.58370   0.77880   0.67630
C          C       0.40620   0.82820   0.38870
C          C       0.45470   0.86680   0.44310
C          C       0.40870   0.96810   0.37810
H          H       0.37810   0.94630   0.33520
C          C       0.45360   0.93260   0.44090
O          O       0.41630   0.77880   0.32370
O          O       0.36090   0.84460   0.40970
C          C       0.60280   0.38390   0.76840
C          C       0.57980   0.44290   0.82160
C          C       0.59670   0.50000   0.77550
H          H       0.62090   0.50000   0.70960
C          C       0.51950   0.38420   0.95900
H          H       0.53330   0.34530   0.93170
C          C       0.54020   0.44160   0.91270
C          C       0.52020   0.50000   0.95510
O          O       0.61980   0.34180   0.85380
O          O       0.60520   0.37880   0.64690
C          C       0.60280   0.61610   0.76840
C          C       0.57980   0.55710   0.82160
C          C       0.51950   0.61580   0.95900
H          H       0.53330   0.65470   0.93170
C          C       0.54020   0.55840   0.91270
O          O       0.61980   0.65820   0.85380
O          O       0.60520   0.62120   0.64690
C          C       0.39720   0.61610   0.23160
C          C       0.42020   0.55710   0.17840
C          C       0.48050   0.61580   0.04100
H          H       0.46670   0.65470   0.06830
C          C       0.45980   0.55840   0.08730
O          O       0.38020   0.65820   0.14620
O          O       0.39480   0.62120   0.35310
C          C       0.71210   0.17200   0.90150
C          C       0.72810   0.13320   0.02480
C          C       0.74210   0.16510   0.14480
H          H       0.74000   0.20970   0.14570
C          C       0.75910   0.13360   0.26310
C          C       0.77380   0.17360   0.38520
C          C       0.76020   0.06700   0.26600
C          C       0.77680   0.03160   0.38600
H          H       0.78810   0.05350   0.46730
C          C       0.71580   0.03200   0.90140
H          H       0.70580   0.05380   0.81940
C          C       0.73030   0.06690   0.02100
C          C       0.74560   0.03400   0.14370
O          O       0.67780   0.21500   0.91270
O          O       0.73410   0.16180   0.79830
O          O       0.80190   0.22320   0.36890
O          O       0.75760   0.16040   0.49330
Zn         Zn      0.64580   0.26900   0.76310
C          C       0.71210   0.82800   0.90150
C          C       0.72810   0.86680   0.02480
C          C       0.74210   0.83490   0.14480
H          H       0.74000   0.79030   0.14570
C          C       0.75910   0.86640   0.26310
C          C       0.77380   0.82640   0.38520
C          C       0.76020   0.93300   0.26600
C          C       0.77680   0.96840   0.38600
H          H       0.78810   0.94650   0.46730
C          C       0.71580   0.96800   0.90140
H          H       0.70580   0.94620   0.81940
C          C       0.73030   0.93310   0.02100
C          C       0.74560   0.96600   0.14370
O          O       0.67780   0.78500   0.91270
O          O       0.73410   0.83820   0.79830
O          O       0.80190   0.77680   0.36890
O          O       0.75760   0.83960   0.49330
Zn         Zn      0.64580   0.73100   0.76310
Zn         Zn      0.35420   0.73100   0.23700
Li         Li      0.28850   0.18500   0.38570
Li         Li      0.71150   0.18500   0.61430
Li         Li      0.78850   0.68500   0.38570
Li         Li      0.21150   0.68500   0.61430
Li         Li      0.71150   0.81500   0.61430
Li         Li      0.28850   0.81500   0.38570
Li         Li      0.21150   0.31500   0.61430
Li         Li      0.78850   0.31500   0.38570
O          O       0.69810   0.72320   0.63110
O          O       0.30190   0.72320   0.36890
O          O       0.30190   0.27680   0.36890
O          O       0.69810   0.27680   0.63110
O          O       0.24240   0.16040   0.50670
Zn         Zn      0.85420   0.76900   0.23700
Zn         Zn      0.14580   0.76900   0.76310
Zn         Zn      0.14580   0.23100   0.76310
Zn         Zn      0.85420   0.23100   0.23700
N          N       0.57840   0.69580   0.36540
H          H       0.59570   0.70220   0.45080
H          H       0.59440   0.66160   0.33040
C          C       0.52530   0.68020   0.37600
H          H       0.51880   0.63630   0.34880
H          H       0.51820   0.68550   0.46930
H          H       0.50120   0.70770   0.31750
C          C       0.58780   0.74930   0.28700
H          H       0.62070   0.74290   0.24470
H          H       0.55720   0.75530   0.21650
H          H       0.59190   0.78680   0.34400
N          N       0.42160   0.69580   0.63460
H          H       0.40430   0.70220   0.54920
H          H       0.40560   0.66160   0.66960
C          C       0.47470   0.68020   0.62400
H          H       0.48120   0.63630   0.65120
H          H       0.48180   0.68550   0.53070
H          H       0.49880   0.70770   0.68250
C          C       0.41220   0.74930   0.71300
H          H       0.37930   0.74290   0.75530
H          H       0.44280   0.75530   0.78350
H          H       0.40810   0.78680   0.65600
N          N       0.92160   0.80420   0.63460
H          H       0.90430   0.79780   0.54920
H          H       0.90560   0.83840   0.66960
C          C       0.97470   0.81980   0.62400
H          H       0.98120   0.86370   0.65120
H          H       0.98180   0.81450   0.53070
H          H       0.99880   0.79230   0.68250
C          C       0.91220   0.75070   0.71300
H          H       0.87930   0.75710   0.75530
H          H       0.94280   0.74470   0.78350
H          H       0.90810   0.71320   0.65600
N          N       0.07840   0.80420   0.36540
H          H       0.09570   0.79780   0.45080
H          H       0.09440   0.83840   0.33040
C          C       0.02530   0.81980   0.37600
H          H       0.01880   0.86370   0.34880
H          H       0.01820   0.81450   0.46930
H          H       0.00120   0.79230   0.31750
C          C       0.08780   0.75070   0.28700
H          H       0.12070   0.75710   0.24470
H          H       0.05720   0.74470   0.21650
H          H       0.09190   0.71320   0.34400
C          C       0.78790   0.67200   0.09850
C          C       0.77190   0.63320   0.97520
C          C       0.75790   0.66510   0.85520
H          H       0.76000   0.70970   0.85430
C          C       0.74090   0.63360   0.73690
C          C       0.72620   0.67360   0.61480
C          C       0.73980   0.56700   0.73400
C          C       0.72320   0.53160   0.61400
H          H       0.71190   0.55350   0.53270
C          C       0.78420   0.53200   0.09860
H          H       0.79420   0.55380   0.18060
C          C       0.76970   0.56690   0.97900
C          C       0.75440   0.53400   0.85630
C          C       0.90620   0.67180   0.38870
C          C       0.95470   0.63320   0.44310
C          C       1.00000   0.66480   0.50000
H          H       1.00000   0.70950   0.50000
C          C       0.90870   0.53190   0.37810
H          H       0.87810   0.55370   0.33520
C          C       0.95360   0.56730   0.44090
C          C       1.00000   0.53370   0.50000
C          C       0.89720   0.88390   0.23160
C          C       0.92020   0.94290   0.17840
C          C       0.90330   0.00000   0.22450
H          H       0.87910   0.00000   0.29040
C          C       0.98050   0.88420   0.04100
H          H       0.96670   0.84530   0.06830
C          C       0.95980   0.94160   0.08730
C          C       0.97980   0.00000   0.04490
O          O       0.82210   0.71500   0.08730
O          O       0.76590   0.66180   0.20170
O          O       0.91630   0.72130   0.32370
O          O       0.86090   0.65540   0.40970
O          O       0.88020   0.84180   0.14620
O          O       0.89480   0.87880   0.35310
C          C       0.78790   0.32800   0.09850
C          C       0.77190   0.36680   0.97520
C          C       0.75790   0.33490   0.85520
H          H       0.76000   0.29030   0.85430
C          C       0.74090   0.36640   0.73690
C          C       0.72620   0.32640   0.61480
C          C       0.73980   0.43300   0.73400
C          C       0.72320   0.46840   0.61400
H          H       0.71190   0.44650   0.53270
C          C       0.78420   0.46800   0.09860
H          H       0.79420   0.44620   0.18060
C          C       0.76970   0.43310   0.97900
C          C       0.75440   0.46600   0.85630
O          O       0.82210   0.28500   0.08730
O          O       0.76590   0.33820   0.20170
O          O       0.74240   0.33960   0.50670
C          C       0.09380   0.67180   0.61130
C          C       0.04530   0.63320   0.55690
C          C       0.09130   0.53190   0.62190
H          H       0.12190   0.55370   0.66480
C          C       0.04640   0.56730   0.55910
O          O       0.08370   0.72130   0.67630
O          O       0.13910   0.65540   0.59030
C          C       0.09380   0.32820   0.61130
C          C       0.04530   0.36680   0.55690
C          C       1.00000   0.33520   0.50000
H          H       1.00000   0.29050   0.50000
C          C       0.09130   0.46810   0.62190
H          H       0.12190   0.44630   0.66480
C          C       0.04640   0.43260   0.55910
C          C       1.00000   0.46630   0.50000
O          O       0.08370   0.27880   0.67630
O          O       0.13910   0.34460   0.59030
C          C       0.90620   0.32820   0.38870
C          C       0.95470   0.36680   0.44310
C          C       0.90870   0.46810   0.37810
H          H       0.87810   0.44630   0.33520
C          C       0.95360   0.43260   0.44090
O          O       0.91630   0.27880   0.32370
O          O       0.86090   0.34460   0.40970
C          C       0.10280   0.88390   0.76840
C          C       0.07980   0.94290   0.82160
C          C       0.09670   0.00000   0.77550
H          H       0.12090   0.00000   0.70960
C          C       0.01950   0.88420   0.95900
H          H       0.03330   0.84530   0.93170
C          C       0.04020   0.94160   0.91270
C          C       0.02020   0.00000   0.95510
O          O       0.11980   0.84180   0.85380
O          O       0.10520   0.87880   0.64690
C          C       0.10280   0.11610   0.76840
C          C       0.07980   0.05710   0.82160
C          C       0.01950   0.11580   0.95900
H          H       0.03330   0.15470   0.93170
C          C       0.04020   0.05840   0.91270
O          O       0.11980   0.15820   0.85380
O          O       0.10520   0.12120   0.64690
C          C       0.89720   0.11610   0.23160
C          C       0.92020   0.05710   0.17840
C          C       0.98050   0.11580   0.04100
H          H       0.96670   0.15470   0.06830
C          C       0.95980   0.05840   0.08730
O          O       0.88020   0.15820   0.14620
O          O       0.89480   0.12120   0.35310
C          C       0.21210   0.67200   0.90150
C          C       0.22810   0.63320   0.02480
C          C       0.24210   0.66510   0.14480
H          H       0.24000   0.70970   0.14570
C          C       0.25910   0.63360   0.26310
C          C       0.27380   0.67360   0.38520
C          C       0.26020   0.56700   0.26600
C          C       0.27680   0.53160   0.38600
H          H       0.28810   0.55350   0.46730
C          C       0.21580   0.53200   0.90140
H          H       0.20580   0.55380   0.81940
C          C       0.23030   0.56690   0.02100
C          C       0.24560   0.53400   0.14370
O          O       0.17780   0.71500   0.91270
O          O       0.23410   0.66180   0.79830
O          O       0.25760   0.66040   0.49330
C          C       0.21210   0.32800   0.90150
C          C       0.22810   0.36680   0.02480
C          C       0.24210   0.33490   0.14480
H          H       0.24000   0.29030   0.14570
C          C       0.25910   0.36640   0.26310
C          C       0.27380   0.32640   0.38520
C          C       0.26020   0.43300   0.26600
C          C       0.27680   0.46840   0.38600
H          H       0.28810   0.44650   0.46730
C          C       0.21580   0.46800   0.90140
H          H       0.20580   0.44620   0.81940
C          C       0.23030   0.43310   0.02100
C          C       0.24560   0.46600   0.14370
O          O       0.17780   0.28500   0.91270
O          O       0.23410   0.33820   0.79830
O          O       0.25760   0.33960   0.49330
O          O       0.74240   0.66040   0.50670
N          N       0.07840   0.19580   0.36540
H          H       0.09570   0.20220   0.45080
H          H       0.09440   0.16160   0.33040
C          C       0.02530   0.18020   0.37600
H          H       0.01880   0.13630   0.34880
H          H       0.01820   0.18550   0.46930
H          H       0.00120   0.20770   0.31750
C          C       0.08780   0.24930   0.28700
H          H       0.12070   0.24290   0.24470
H          H       0.05720   0.25530   0.21650
H          H       0.09190   0.28680   0.34400
N          N       0.92160   0.19580   0.63460
H          H       0.90430   0.20220   0.54920
H          H       0.90560   0.16160   0.66960
C          C       0.97470   0.18020   0.62400
H          H       0.98120   0.13630   0.65120
H          H       0.98180   0.18550   0.53070
H          H       0.99880   0.20770   0.68250
C          C       0.91220   0.24930   0.71300
H          H       0.87930   0.24290   0.75530
H          H       0.94280   0.25530   0.78350
H          H       0.90810   0.28680   0.65600
