data_crystal

_cell_length_a    13.75280
_cell_length_b    15.78690
_cell_length_c    11.16440
_cell_angle_alpha 90.00000
_cell_angle_beta  103.03000
_cell_angle_gamma 90.00000

_symmetry_space_group_name_Hall 'P 1'
_symmetry_space_group_name_H-M  'P 1'

loop_
_symmetry_equiv_pos_as_xyz
 'x,y,z'

loop_
_atom_site_label
_atom_site_type_symbol
_atom_site_fract_x
_atom_site_fract_y
_atom_site_fract_z
Co         Co      0.05930   0.50000   0.41110
C          C       0.26550   0.00000   0.79560
H          H       0.20170   0.00000   0.74500
C          C       0.45300   0.00000   0.95680
O          O       0.02920   0.40480   0.66750
O          O       0.12980   0.41400   0.53980
C          C       0.10200   0.38050   0.62780
C          C       0.15830   0.30360   0.68360
C          C       0.25070   0.28470   0.66110
H          H       0.27910   0.32050   0.61230
C          C       0.30110   0.21290   0.71070
H          H       0.36400   0.20180   0.69660
C          C       0.25970   0.15630   0.78200
C          C       0.16640   0.17570   0.80300
H          H       0.13680   0.13900   0.84940
C          C       0.11730   0.24880   0.75580
H          H       0.05580   0.26160   0.77280
C          C       0.45460   0.15630   0.95860
H          H       0.42440   0.20750   0.93070
C          C       0.40640   0.07860   0.91490
C          C       0.31140   0.07660   0.83210
O          O       0.02920   0.59520   0.66750
O          O       0.12980   0.58600   0.53980
C          C       0.10200   0.61950   0.62780
C          C       0.15830   0.69640   0.68360
C          C       0.25070   0.71530   0.66110
H          H       0.27910   0.67950   0.61230
C          C       0.30110   0.78710   0.71070
H          H       0.36400   0.79820   0.69660
C          C       0.25970   0.84370   0.78200
C          C       0.16640   0.82430   0.80300
H          H       0.13680   0.86100   0.84940
C          C       0.11730   0.75120   0.75580
H          H       0.05580   0.73840   0.77280
C          C       0.45460   0.84370   0.95860
H          H       0.42440   0.79250   0.93070
C          C       0.40640   0.92140   0.91490
C          C       0.31140   0.92340   0.83210
O          O       0.17430   0.50000   0.32580
H          H       0.15620   0.47510   0.25680
H          H       0.18660   0.55050   0.30750
C          C       0.04710   0.00000   0.04320
O          O       0.47080   0.40480   0.33250
O          O       0.37030   0.41400   0.46020
C          C       0.39800   0.38050   0.37220
C          C       0.34170   0.30360   0.31640
C          C       0.24920   0.28470   0.33890
H          H       0.22090   0.32050   0.38770
C          C       0.19880   0.21290   0.28930
H          H       0.13600   0.20180   0.30340
C          C       0.24020   0.15630   0.21800
C          C       0.33360   0.17570   0.19700
H          H       0.36320   0.13900   0.15060
C          C       0.38260   0.24880   0.24420
H          H       0.44420   0.26160   0.22720
C          C       0.04540   0.15630   0.04140
H          H       0.07560   0.20750   0.06930
C          C       0.09360   0.07860   0.08510
C          C       0.18860   0.07660   0.16790
Co         Co      0.44070   0.50000   0.58890
O          O       0.47080   0.59520   0.33250
O          O       0.37030   0.58600   0.46020
C          C       0.39800   0.61950   0.37220
C          C       0.34170   0.69640   0.31640
C          C       0.24920   0.71530   0.33890
H          H       0.22090   0.67950   0.38770
C          C       0.19880   0.78710   0.28930
H          H       0.13600   0.79820   0.30340
C          C       0.24020   0.84370   0.21800
C          C       0.33360   0.82430   0.19700
H          H       0.36320   0.86100   0.15060
C          C       0.38260   0.75120   0.24420
H          H       0.44420   0.73840   0.22720
C          C       0.04540   0.84370   0.04140
H          H       0.07560   0.79250   0.06930
C          C       0.09360   0.92140   0.08510
C          C       0.18860   0.92340   0.16790
C          C       0.23450   0.00000   0.20440
H          H       0.29830   0.00000   0.25500
O          O       0.32570   0.50000   0.67420
H          H       0.34380   0.47510   0.74320
H          H       0.31340   0.55050   0.69250
Co         Co      0.55930   0.50000   0.41110
C          C       0.76550   0.00000   0.79560
H          H       0.70170   0.00000   0.74500
C          C       0.95290   0.00000   0.95680
O          O       0.52920   0.40480   0.66750
O          O       0.62980   0.41400   0.53980
C          C       0.60200   0.38050   0.62780
C          C       0.65830   0.30360   0.68360
C          C       0.75080   0.28470   0.66110
H          H       0.77910   0.32050   0.61230
C          C       0.80120   0.21290   0.71070
H          H       0.86400   0.20180   0.69660
C          C       0.75970   0.15630   0.78200
C          C       0.66640   0.17570   0.80300
H          H       0.63680   0.13900   0.84940
C          C       0.61730   0.24880   0.75580
H          H       0.55580   0.26160   0.77280
C          C       0.95460   0.15630   0.95860
H          H       0.92440   0.20750   0.93070
C          C       0.90640   0.07860   0.91490
C          C       0.81140   0.07660   0.83210
O          O       0.52920   0.59520   0.66750
O          O       0.62980   0.58600   0.53980
C          C       0.60200   0.61950   0.62780
C          C       0.65830   0.69640   0.68360
C          C       0.75080   0.71530   0.66110
H          H       0.77910   0.67950   0.61230
C          C       0.80120   0.78710   0.71070
H          H       0.86400   0.79820   0.69660
C          C       0.75970   0.84370   0.78200
C          C       0.66640   0.82430   0.80300
H          H       0.63680   0.86100   0.84940
C          C       0.61730   0.75120   0.75580
H          H       0.55580   0.73840   0.77280
C          C       0.95460   0.84370   0.95860
H          H       0.92440   0.79250   0.93070
C          C       0.90640   0.92140   0.91490
C          C       0.81140   0.92340   0.83210
O          O       0.67430   0.50000   0.32580
H          H       0.65620   0.47510   0.25680
H          H       0.68660   0.55050   0.30750
C          C       0.54710   0.00000   0.04320
O          O       0.97080   0.40480   0.33250
O          O       0.87020   0.41400   0.46020
C          C       0.89800   0.38050   0.37220
C          C       0.84170   0.30360   0.31640
C          C       0.74920   0.28470   0.33890
H          H       0.72090   0.32050   0.38770
C          C       0.69880   0.21290   0.28930
H          H       0.63600   0.20180   0.30340
C          C       0.74020   0.15630   0.21800
C          C       0.83360   0.17570   0.19700
H          H       0.86320   0.13900   0.15060
C          C       0.88260   0.24880   0.24420
H          H       0.94420   0.26160   0.22720
C          C       0.54540   0.15630   0.04140
H          H       0.57560   0.20750   0.06930
C          C       0.59360   0.07860   0.08510
C          C       0.68860   0.07660   0.16790
Co         Co      0.94070   0.50000   0.58890
O          O       0.97080   0.59520   0.33250
O          O       0.87020   0.58600   0.46020
C          C       0.89800   0.61950   0.37220
C          C       0.84170   0.69640   0.31640
C          C       0.74920   0.71530   0.33890
H          H       0.72090   0.67950   0.38770
C          C       0.69880   0.78710   0.28930
H          H       0.63600   0.79820   0.30340
C          C       0.74020   0.84370   0.21800
C          C       0.83360   0.82430   0.19700
H          H       0.86320   0.86100   0.15060
C          C       0.88260   0.75120   0.24420
H          H       0.94420   0.73840   0.22720
C          C       0.54540   0.84370   0.04140
H          H       0.57560   0.79250   0.06930
C          C       0.59360   0.92140   0.08510
C          C       0.68860   0.92340   0.16790
C          C       0.73450   0.00000   0.20440
H          H       0.79830   0.00000   0.25500
O          O       0.82570   0.50000   0.67420
H          H       0.84380   0.47510   0.74320
H          H       0.81340   0.55050   0.69250
