data_crystal

_cell_length_a    6.79280
_cell_length_b    11.17760
_cell_length_c    15.77840
_cell_angle_alpha 90.00000
_cell_angle_beta  90.00000
_cell_angle_gamma 102.86000

_symmetry_space_group_name_Hall 'P 1'
_symmetry_space_group_name_H-M  'P 1'

loop_
_symmetry_equiv_pos_as_xyz
 'x,y,z'

loop_
_atom_site_label
_atom_site_type_symbol
_atom_site_fract_x
_atom_site_fract_y
_atom_site_fract_z
Zn         Zn      0.87068   0.58906   0.50000
Zn         Zn      0.12932   0.41094   0.50000
H          H       0.10444   0.77083   0.73757
H          H       0.89556   0.22917   0.73757
H          H       0.89556   0.22917   0.26243
H          H       0.10444   0.77083   0.26243
H          H       0.26745   0.84876   0.86047
H          H       0.73255   0.15124   0.86047
H          H       0.73255   0.15124   0.13953
H          H       0.26745   0.84876   0.13953
H          H       0.73145   0.69743   0.79912
H          H       0.26855   0.30257   0.79912
H          H       0.26855   0.30257   0.20088
H          H       0.73145   0.69743   0.20088
H          H       0.56211   0.61351   0.67920
H          H       0.43789   0.38649   0.67920
H          H       0.43789   0.38649   0.32080
H          H       0.56211   0.61351   0.32080
H          H       0.39891   0.74438   0.00000
H          H       0.60109   0.25562   0.00000
H          H       0.84868   0.93017   0.79287
H          H       0.15132   0.06983   0.79287
H          H       0.15132   0.06983   0.20713
H          H       0.84868   0.93017   0.20713
H          H       0.31116   0.24775   0.47172
H          H       0.68884   0.75225   0.47172
H          H       0.54612   0.64261   0.52868
H          H       0.45388   0.35739   0.52868
C          C       0.20300   0.62680   0.61894
C          C       0.79700   0.37320   0.61894
C          C       0.79700   0.37320   0.38106
C          C       0.20300   0.62680   0.38106
C          C       0.31540   0.68430   0.69564
C          C       0.68460   0.31570   0.69564
C          C       0.68460   0.31570   0.30436
C          C       0.31540   0.68430   0.30436
C          C       0.22980   0.75500   0.75040
C          C       0.77020   0.24500   0.75040
C          C       0.77020   0.24500   0.24960
C          C       0.22980   0.75500   0.24960
C          C       0.32800   0.80240   0.82390
C          C       0.67200   0.19760   0.82390
C          C       0.67200   0.19760   0.17610
C          C       0.32800   0.80240   0.17610
C          C       0.51680   0.78110   0.84341
C          C       0.48320   0.21890   0.84341
C          C       0.48320   0.21890   0.15659
C          C       0.51680   0.78110   0.15659
C          C       0.60400   0.71110   0.78750
C          C       0.39600   0.28890   0.78750
C          C       0.39600   0.28890   0.21250
C          C       0.60400   0.71110   0.21250
C          C       0.50370   0.66180   0.71510
C          C       0.49630   0.33820   0.71510
C          C       0.49630   0.33820   0.28490
C          C       0.50370   0.66180   0.28490
C          C       0.52780   0.79490   0.00000
C          C       0.47220   0.20510   0.00000
C          C       0.62060   0.83130   0.92356
C          C       0.37940   0.16870   0.92356
C          C       0.37940   0.16870   0.07644
C          C       0.62060   0.83130   0.07644
C          C       0.81230   0.91490   0.92140
C          C       0.18770   0.08510   0.92140
C          C       0.18770   0.08510   0.07860
C          C       0.81230   0.91490   0.07860
C          C       0.90490   0.95630   0.00000
C          C       0.09510   0.04370   0.00000
C          C       0.90920   0.95840   0.84412
C          C       0.09080   0.04160   0.84412
C          C       0.09080   0.04160   0.15588
C          C       0.90920   0.95840   0.15588
O          O       0.26120   0.54040   0.58644
O          O       0.73880   0.45960   0.58644
O          O       0.73880   0.45960   0.41356
O          O       0.26120   0.54040   0.41356
O          O       0.05630   0.66660   0.59381
O          O       0.94370   0.33340   0.59381
O          O       0.94370   0.33340   0.40619
O          O       0.05630   0.66660   0.40619
O          O       0.65390   0.68190   0.50000
O          O       0.34610   0.31810   0.50000
