data_crystal

_cell_length_a    11.06400
_cell_length_b    15.95700
_cell_length_c    23.36200
_cell_angle_alpha 90.00000
_cell_angle_beta  92.27000
_cell_angle_gamma 90.00000

_symmetry_space_group_name_Hall 'P 1'
_symmetry_space_group_name_H-M  'P 1'

loop_
_symmetry_equiv_pos_as_xyz
 'x,y,z'

loop_
_atom_site_label
_atom_site_type_symbol
_atom_site_fract_x
_atom_site_fract_y
_atom_site_fract_z
H          H       0.42340   0.21230   0.15920
Mg         Mg      0.44720   0.86510   0.16050
O          O       0.37900   0.94150   0.10140
O          O       0.56140   0.93690   0.20490
O          O       0.65220   0.84210   0.26110
C          C       0.67750   0.98470   0.28440
C          C       0.76440   0.96450   0.32720
C          C       0.62660   0.91650   0.24590
O          O       0.82470   0.69010   0.25770
C          C       0.89520   0.71310   0.29300
O          O       0.56930   0.82080   0.10700
O          O       0.69100   0.74190   0.16220
C          C       0.91130   0.47660   0.00580
C          C       0.92060   0.55340   0.03480
C          C       0.83450   0.62280   0.02440
C          C       0.67300   0.75630   0.00860
C          C       0.70530   0.72880   0.06340
C          C       0.78560   0.66280   0.07060
C          C       0.65080   0.76760   0.11470
Mg         Mg      0.64130   0.72280   0.24070
H          H       0.79590   0.91050   0.32920
H          H       0.85610   0.74280   0.32110
H          H       0.61860   0.80020   0.00340
H          H       0.80720   0.64490   0.10750
O          O       0.72650   0.70920   0.86070
O          O       0.62100   0.81050   0.89860
C          C       0.80240   0.65200   0.96960
C          C       0.72210   0.71800   0.96170
C          C       0.68650   0.74860   0.90220
N          N       0.00240   0.71060   0.30440
C          C       0.09420   0.67280   0.27380
C          C       0.05370   0.74950   0.35500
H          H       0.83530   0.62670   0.93780
H          H       0.06050   0.65060   0.23850
H          H       0.13000   0.62820   0.29620
H          H       0.15480   0.71370   0.26580
H          H       0.10120   0.79700   0.34440
H          H       0.10430   0.70990   0.37560
C          C       0.19690   0.36960   0.05980
C          C       0.19150   0.29690   0.03110
Mg         Mg      0.64130   0.52920   0.74070
Mg         Mg      0.55270   0.36510   0.33950
C          C       0.89860   0.93010   0.44450
C          C       0.99700   0.91480   0.48480
C          C       0.80310   0.86960   0.44020
C          C       0.80850   0.79690   0.46890
O          O       0.72650   0.54280   0.36070
O          O       0.62100   0.44150   0.39860
O          O       0.56930   0.43120   0.60700
O          O       0.69100   0.51010   0.66220
C          C       0.91130   0.77540   0.50580
C          C       0.92060   0.69860   0.53480
C          C       0.83450   0.62920   0.52440
C          C       0.80240   0.60000   0.46960
C          C       0.72210   0.53400   0.46170
C          C       0.67300   0.49570   0.50860
C          C       0.70530   0.52320   0.56340
C          C       0.78560   0.58920   0.57060
C          C       0.68650   0.50340   0.40220
C          C       0.65080   0.48440   0.61470
O          O       0.46100   0.73310   0.21490
O          O       0.33450   0.76420   0.14320
O          O       0.43860   0.43690   0.29510
C          C       0.37840   0.71310   0.17930
C          C       0.32830   0.62560   0.17940
C          C       0.36780   0.56570   0.21970
C          C       0.32250   0.48470   0.21560
C          C       0.23560   0.46450   0.17280
C          C       0.19560   0.52440   0.13310
C          C       0.24390   0.60440   0.13710
C          C       0.37340   0.41650   0.25410
C          C       0.10250   0.50500   0.08750
C          C       0.10140   0.43010   0.05550
C          C       0.00300   0.41480   0.01520
C          C       0.01300   0.56500   0.07530
O          O       0.34780   0.34210   0.23890
O          O       0.17530   0.06190   0.74230
C          C       0.10480   0.03890   0.70700
H          H       0.25560   0.25940   0.03520
H          H       0.73510   0.88120   0.41680
H          H       0.74440   0.75940   0.46480
H          H       0.83530   0.62530   0.43780
H          H       0.61860   0.45180   0.50340
H          H       0.80720   0.60710   0.60750
H          H       0.42360   0.58000   0.24890
H          H       0.20410   0.41050   0.17080
H          H       0.21860   0.64470   0.11060
H          H       0.01590   0.61510   0.09560
H          H       0.26490   0.38120   0.08320
H          H       0.14390   0.00920   0.67890
O          O       0.27350   0.04280   0.13930
C          C       0.19760   0.10000   0.03040
C          C       0.27790   0.03400   0.03830
C          C       0.31350   0.00340   0.09780
N          N       0.99760   0.04140   0.69560
C          C       0.90580   0.07920   0.72620
C          C       0.94630   0.00250   0.64500
H          H       0.16470   0.12530   0.06220
H          H       0.93950   0.10140   0.76150
H          H       0.87000   0.12380   0.70380
H          H       0.84520   0.03830   0.73420
H          H       0.89570   0.04210   0.62440
Mg         Mg      0.35870   0.22280   0.25930
Mg         Mg      0.44720   0.38690   0.66050
O          O       0.27350   0.20920   0.63930
O          O       0.37900   0.31050   0.60140
O          O       0.43070   0.32080   0.39300
O          O       0.30900   0.24190   0.33780
C          C       0.07940   0.05340   0.46520
C          C       0.16550   0.12280   0.47560
C          C       0.19760   0.15200   0.53040
C          C       0.27790   0.21800   0.53830
C          C       0.32700   0.25630   0.49140
C          C       0.29470   0.22880   0.43660
C          C       0.21440   0.16280   0.42940
C          C       0.31350   0.24860   0.59780
C          C       0.34920   0.26760   0.38530
C          C       0.80310   0.38240   0.94020
C          C       0.80850   0.45510   0.96890
O          O       0.17530   0.19010   0.24230
C          C       0.10480   0.21310   0.20700
O          O       0.53900   0.01890   0.78510
O          O       0.56140   0.31510   0.70490
C          C       0.62160   0.03890   0.82070
C          C       0.67170   0.12640   0.82060
C          C       0.63220   0.18630   0.78030
C          C       0.67750   0.26730   0.78440
C          C       0.76440   0.28750   0.82720
C          C       0.80440   0.22760   0.86690
C          C       0.75610   0.14760   0.86290
C          C       0.62660   0.33550   0.74590
C          C       0.89750   0.24700   0.91250
C          C       0.89860   0.32190   0.94450
C          C       0.99700   0.33720   0.98480
C          C       0.98700   0.18700   0.92470
O          O       0.65220   0.40990   0.76110
H          H       0.16470   0.12670   0.56220
H          H       0.38140   0.30020   0.49660
H          H       0.19280   0.14490   0.39250
H          H       0.74440   0.49260   0.96480
H          H       0.14390   0.24280   0.17890
H          H       0.57640   0.17200   0.75110
H          H       0.79590   0.34150   0.82920
H          H       0.78140   0.10730   0.88940
H          H       0.98410   0.13690   0.90440
H          H       0.73510   0.37080   0.91680
Mg         Mg      0.55270   0.88690   0.83950
O          O       0.43860   0.81510   0.79510
O          O       0.34780   0.90990   0.73890
C          C       0.08870   0.97660   0.49420
O          O       0.46100   0.51890   0.71490
O          O       0.33450   0.48780   0.64320
C          C       0.37840   0.53890   0.67930
C          C       0.32830   0.62640   0.67940
C          C       0.36780   0.68630   0.71970
C          C       0.32250   0.76730   0.71560
C          C       0.23560   0.78750   0.67280
C          C       0.19560   0.72760   0.63310
C          C       0.24390   0.64760   0.63710
C          C       0.37340   0.83550   0.75410
C          C       0.10250   0.74700   0.58750
C          C       0.10140   0.82190   0.55550
C          C       0.00300   0.83720   0.51520
C          C       0.01300   0.68700   0.57530
C          C       0.19690   0.88240   0.55980
C          C       0.19150   0.95510   0.53110
N          N       0.99760   0.21060   0.19560
C          C       0.90580   0.17280   0.22620
C          C       0.94630   0.24950   0.14500
H          H       0.42360   0.67200   0.74890
H          H       0.20410   0.84150   0.67080
H          H       0.21860   0.60730   0.61060
H          H       0.01590   0.63690   0.59560
H          H       0.26490   0.87080   0.58320
H          H       0.25560   0.99260   0.53520
H          H       0.93950   0.15060   0.26150
H          H       0.87000   0.12820   0.20380
H          H       0.84520   0.21370   0.23420
H          H       0.89880   0.29700   0.15560
H          H       0.89570   0.20990   0.12440
O          O       0.53900   0.23310   0.28510
O          O       0.66550   0.26420   0.35680
C          C       0.62160   0.21310   0.32070
C          C       0.67170   0.12560   0.32060
C          C       0.63220   0.06570   0.28030
C          C       0.80440   0.02440   0.36690
C          C       0.75610   0.10440   0.36290
C          C       0.89750   0.00500   0.41250
C          C       0.98700   0.06500   0.42470
O          O       0.82470   0.56190   0.75770
C          C       0.89520   0.53890   0.79300
H          H       0.57640   0.08000   0.25110
H          H       0.78140   0.14470   0.38940
H          H       0.98410   0.11510   0.40440
H          H       0.85610   0.50920   0.82110
O          O       0.39810   0.16630   0.19170
N          N       0.00240   0.54140   0.80440
C          C       0.09420   0.57920   0.77380
H          H       0.06050   0.60140   0.73850
O          O       0.60190   0.58570   0.80830
C          C       0.34920   0.98440   0.88530
O          O       0.60190   0.66630   0.30830
Mg         Mg      0.35870   0.02920   0.75930
O          O       0.31320   0.90380   0.21800
H          H       0.38140   0.95180   0.99660
H          H       0.99000   0.76760   0.37880
O          O       0.62900   0.59680   0.19800
N          N       0.61700   0.48120   0.14530
C          C       0.64200   0.52440   0.18530
C          C       0.55300   0.50800   0.09450
C          C       0.64300   0.39550   0.13960
H          H       0.68410   0.49460   0.21410
H          H       0.55470   0.56840   0.09260
H          H       0.47090   0.48940   0.09490
H          H       0.59130   0.48550   0.06170
H          H       0.68800   0.37660   0.17320
H          H       0.69010   0.38710   0.10650
H          H       0.56890   0.36440   0.13540
O          O       0.66550   0.98780   0.85680
C          C       0.08870   0.27540   0.99420
C          C       0.07940   0.19860   0.96520
C          C       0.16550   0.12920   0.97560
C          C       0.29470   0.02320   0.93660
C          C       0.21440   0.08920   0.92940
H          H       0.19280   0.10710   0.89250
C          C       0.32700   0.99570   0.99140
O          O       0.39810   0.08570   0.69170
O          O       0.68680   0.84820   0.78200
H          H       0.01000   0.98440   0.62120
O          O       0.37100   0.15520   0.80200
N          N       0.38300   0.27080   0.85470
C          C       0.35800   0.22760   0.81470
C          C       0.44700   0.24400   0.90550
C          C       0.35700   0.35650   0.86040
H          H       0.31590   0.25740   0.78590
H          H       0.44530   0.18360   0.90740
H          H       0.52910   0.26260   0.90510
H          H       0.40870   0.26650   0.93830
H          H       0.31200   0.37540   0.82680
H          H       0.30990   0.36490   0.89350
H          H       0.43110   0.38760   0.86460
O          O       0.68680   0.40380   0.28200
H          H       0.74640   0.44360   0.30920
H          H       0.74210   0.36240   0.25600
H          H       0.01000   0.26760   0.12120
O          O       0.37100   1.09680   0.30200
N          N       0.38300   0.98120   0.35470
C          C       0.35800   1.02440   0.31470
C          C       0.44700   1.00800   0.40550
C          C       0.35700   0.89550   0.36040
H          H       0.31590   0.99460   0.28590
H          H       0.44530   1.06840   0.40740
H          H       0.52910   0.98940   0.40510
H          H       0.40870   0.98550   0.43830
H          H       0.31200   0.87660   0.32680
H          H       0.30990   0.88710   0.39350
H          H       0.43110   0.86440   0.36460
O          O       0.31320   0.34820   0.71800
H          H       0.37390   0.38840   0.74440
H          H       0.24740   0.31790   0.74540
H          H       0.99000   0.48440   0.87880
O          O       0.62900   0.65520   0.69800
N          N       0.61700   0.77080   0.64530
C          C       0.64200   0.72760   0.68530
C          C       0.55300   0.74400   0.59450
C          C       0.64300   0.85650   0.63960
H          H       0.68410   0.75740   0.71410
H          H       0.55470   0.68360   0.59260
H          H       0.47090   0.76260   0.59490
H          H       0.59130   0.76650   0.56170
H          H       0.68800   0.87540   0.67320
H          H       0.69010   0.86490   0.60650
H          H       0.56890   0.88760   0.63540
H          H       0.89880   0.95500   0.65560
C          C       0.05370   0.50250   0.85500
H          H       0.47450   0.12360   0.20090
H          H       0.57680   0.53980   0.84090
H          H       0.68040   0.62220   0.82450
H          H       0.57690   0.71220   0.34090
H          H       0.52530   0.62380   0.29910
H          H       0.37340   0.94320   0.24520
H          H       0.23580   0.94130   0.20180
H          H       0.42330   0.03980   0.65920
H          H       0.31950   0.12210   0.67560
H          H       0.74720   0.88850   0.80850
H          H       0.62960   0.81100   0.80990
H          H       0.13000   0.62380   0.79620
H          H       0.15480   0.53830   0.76580
H          H       0.10120   0.45500   0.84440
H          H       0.10430   0.54210   0.87560
O          O       0.43070   0.93120   0.89300
O          O       0.30900   0.01010   0.83780
