data_crystal

_cell_length_a    30.77900
_cell_length_b    13.26460
_cell_length_c    15.58900
_cell_angle_alpha 90.00000
_cell_angle_beta  90.00000
_cell_angle_gamma 90.00000

_symmetry_space_group_name_Hall 'P 1'
_symmetry_space_group_name_H-M  'P 1'

loop_
_symmetry_equiv_pos_as_xyz
 'x,y,z'

loop_
_atom_site_label
_atom_site_type_symbol
_atom_site_fract_x
_atom_site_fract_y
_atom_site_fract_z
In         In      0.25000   0.12500   0.00000
O          O       0.28370   0.25000   0.00000
C          C       0.19440   0.25000   0.12230
H          H       0.31560   0.25000   0.00000
O          O       0.20590   0.17420   0.09560
C          C       0.02490   0.25000   0.33930
H          H       0.04160   0.25000   0.28920
C          C       0.02240   0.25000   0.50000
C          C       0.09010   0.25000   0.42570
C          C       0.04410   0.25000   0.42130
C          C       0.11390   0.25000   0.50000
H          H       0.14480   0.25000   0.50000
C          C       0.17160   0.19770   0.26970
C          C       0.14560   0.19430   0.34160
C          C       0.09890   0.30690   0.28000
C          C       0.12490   0.31030   0.20800
In         In      0.75000   0.37500   0.00000
O          O       0.71630   0.25000   0.00000
C          C       0.80560   0.25000   0.12230
H          H       0.68440   0.25000   0.00000
O          O       0.79410   0.32580   0.09560
C          C       0.97510   0.25000   0.33930
H          H       0.95840   0.25000   0.28920
C          C       0.97760   0.25000   0.50000
C          C       0.90990   0.25000   0.42570
C          C       0.95590   0.25000   0.42130
C          C       0.88610   0.25000   0.50000
H          H       0.85520   0.25000   0.50000
In         In      0.75000   0.12500   0.00000
C          C       0.80560   0.25000   0.87770
O          O       0.79410   0.17420   0.90440
C          C       0.97510   0.25000   0.66070
H          H       0.95840   0.25000   0.71080
C          C       0.90990   0.25000   0.57430
C          C       0.95590   0.25000   0.57870
C          C       0.83880   0.25570   0.79720
C          C       0.89070   0.24890   0.65320
O          O       0.79410   0.17420   0.09560
C          C       0.83880   0.25570   0.20280
C          C       0.82840   0.19770   0.26970
C          C       0.85440   0.19430   0.34160
C          C       0.89070   0.24890   0.34680
C          C       0.90110   0.30690   0.28000
C          C       0.87510   0.31030   0.20800
In         In      0.25000   0.37500   0.00000
C          C       0.19440   0.25000   0.87770
O          O       0.20590   0.32580   0.90440
C          C       0.02490   0.25000   0.66070
H          H       0.04160   0.25000   0.71080
C          C       0.09010   0.25000   0.57430
C          C       0.04410   0.25000   0.57870
C          C       0.16120   0.24430   0.79720
C          C       0.17160   0.30230   0.73030
C          C       0.14560   0.30570   0.65840
C          C       0.10930   0.25110   0.65320
C          C       0.09890   0.19310   0.72000
C          C       0.12490   0.18970   0.79200
O          O       0.20590   0.32580   0.09560
C          C       0.16120   0.24430   0.20280
C          C       0.10930   0.25110   0.34680
O          O       0.20590   0.17420   0.90440
O          O       0.79410   0.32580   0.90440
C          C       0.82840   0.30230   0.73030
C          C       0.85440   0.30570   0.65840
C          C       0.90110   0.19310   0.72000
C          C       0.87510   0.18970   0.79200
O          O       0.78370   0.00000   0.00000
C          C       0.69440   0.00000   0.12230
H          H       0.81560   0.00000   0.00000
O          O       0.70590   0.42420   0.09560
C          C       0.52490   0.00000   0.33930
H          H       0.54160   0.00000   0.28920
C          C       0.52240   0.00000   0.50000
C          C       0.59010   0.00000   0.42570
C          C       0.54410   0.00000   0.42130
C          C       0.61390   0.00000   0.50000
H          H       0.64480   0.00000   0.50000
C          C       0.66120   0.00570   0.20280
C          C       0.67160   0.44770   0.26970
C          C       0.64560   0.44430   0.34160
C          C       0.60930   0.49890   0.34680
C          C       0.59890   0.05690   0.28000
C          C       0.62490   0.06030   0.20800
O          O       0.21630   0.00000   0.00000
C          C       0.30560   0.00000   0.12230
H          H       0.18440   0.00000   0.00000
O          O       0.29410   0.07580   0.09560
C          C       0.47510   0.00000   0.33930
H          H       0.45840   0.00000   0.28920
C          C       0.47760   0.00000   0.50000
C          C       0.40990   0.00000   0.42570
C          C       0.45590   0.00000   0.42130
C          C       0.38610   0.00000   0.50000
H          H       0.35520   0.00000   0.50000
C          C       0.39070   0.00110   0.34680
C          C       0.30560   0.00000   0.87770
O          O       0.29410   0.42420   0.90440
C          C       0.47510   0.00000   0.66070
H          H       0.45840   0.00000   0.71080
C          C       0.40990   0.00000   0.57430
C          C       0.45590   0.00000   0.57870
O          O       0.29410   0.42420   0.09560
C          C       0.33880   0.00570   0.20280
C          C       0.32840   0.44770   0.26970
C          C       0.35440   0.44430   0.34160
C          C       0.40110   0.05690   0.28000
C          C       0.37510   0.06030   0.20800
C          C       0.69440   0.00000   0.87770
O          O       0.70590   0.07580   0.90440
C          C       0.52490   0.00000   0.66070
H          H       0.54160   0.00000   0.71080
C          C       0.59010   0.00000   0.57430
C          C       0.54410   0.00000   0.57870
C          C       0.66120   0.49430   0.79720
C          C       0.67160   0.05230   0.73030
C          C       0.64560   0.05570   0.65840
C          C       0.60930   0.00110   0.65320
C          C       0.59890   0.44310   0.72000
C          C       0.62490   0.43970   0.79200
O          O       0.70590   0.07580   0.09560
O          O       0.70590   0.42420   0.90440
O          O       0.29410   0.07580   0.90440
C          C       0.33880   0.49430   0.79720
C          C       0.32840   0.05230   0.73030
C          C       0.35440   0.05570   0.65840
C          C       0.39070   0.00110   0.65320
C          C       0.40110   0.44310   0.72000
C          C       0.37510   0.43970   0.79200
H          H       0.43040   0.10130   0.28080
H          H       0.38460   0.10820   0.15520
H          H       0.34550   0.39690   0.39510
H          H       0.29910   0.40290   0.26680
H          H       0.20210   0.15770   0.27270
H          H       0.11750   0.36230   0.15680
H          H       0.06940   0.35060   0.28240
H          H       0.15420   0.14590   0.39470
H          H       0.11540   0.14180   0.84480
H          H       0.06970   0.14830   0.71710
H          H       0.15510   0.35360   0.60560
H          H       0.20090   0.34710   0.73320
H          H       0.38460   0.39180   0.84480
H          H       0.34550   0.10310   0.60490
H          H       0.29910   0.09710   0.73320
H          H       0.43030   0.39830   0.71710
H          H       0.70090   0.40290   0.26680
H          H       0.61540   0.10820   0.15520
H          H       0.65510   0.39640   0.39440
H          H       0.56970   0.10170   0.28290
H          H       0.65510   0.10360   0.60560
H          H       0.70070   0.09760   0.73200
H          H       0.61540   0.39180   0.84480
H          H       0.56980   0.39780   0.71830
H          H       0.88190   0.13820   0.84390
H          H       0.93060   0.14940   0.71760
H          H       0.79790   0.34230   0.72730
H          H       0.84580   0.35410   0.60530
H          H       0.88460   0.35820   0.15520
H          H       0.79910   0.15290   0.26680
H          H       0.84550   0.14690   0.39510
H          H       0.93030   0.35170   0.28290
In         In      0.25000   0.62500   0.00000
O          O       0.28370   0.75000   0.00000
C          C       0.19440   0.75000   0.12230
H          H       0.31560   0.75000   0.00000
O          O       0.20590   0.67420   0.09560
C          C       0.02490   0.75000   0.33930
H          H       0.04160   0.75000   0.28920
C          C       0.02240   0.75000   0.50000
C          C       0.09010   0.75000   0.42570
C          C       0.04410   0.75000   0.42130
C          C       0.11390   0.75000   0.50000
H          H       0.14480   0.75000   0.50000
C          C       0.17160   0.69770   0.26970
C          C       0.14560   0.69430   0.34160
C          C       0.09890   0.80690   0.28000
C          C       0.12490   0.81030   0.20800
In         In      0.75000   0.87500   0.00000
O          O       0.71630   0.75000   0.00000
C          C       0.80560   0.75000   0.12230
H          H       0.68440   0.75000   0.00000
O          O       0.79410   0.82580   0.09560
C          C       0.97510   0.75000   0.33930
H          H       0.95840   0.75000   0.28920
C          C       0.97760   0.75000   0.50000
C          C       0.90990   0.75000   0.42570
C          C       0.95590   0.75000   0.42130
C          C       0.88610   0.75000   0.50000
H          H       0.85520   0.75000   0.50000
In         In      0.75000   0.62500   0.00000
C          C       0.80560   0.75000   0.87770
O          O       0.79410   0.67420   0.90440
C          C       0.97510   0.75000   0.66070
H          H       0.95840   0.75000   0.71080
C          C       0.90990   0.75000   0.57430
C          C       0.95590   0.75000   0.57870
C          C       0.83880   0.75570   0.79720
C          C       0.89070   0.74890   0.65320
O          O       0.79410   0.67420   0.09560
C          C       0.83880   0.75570   0.20280
C          C       0.82840   0.69770   0.26970
C          C       0.85440   0.69430   0.34160
C          C       0.89070   0.74890   0.34680
C          C       0.90110   0.80690   0.28000
C          C       0.87510   0.81030   0.20800
In         In      0.25000   0.87500   0.00000
C          C       0.19440   0.75000   0.87770
O          O       0.20590   0.82580   0.90440
C          C       0.02490   0.75000   0.66070
H          H       0.04160   0.75000   0.71080
C          C       0.09010   0.75000   0.57430
C          C       0.04410   0.75000   0.57870
C          C       0.16120   0.74430   0.79720
C          C       0.17160   0.80230   0.73030
C          C       0.14560   0.80570   0.65840
C          C       0.10930   0.75110   0.65320
C          C       0.09890   0.69310   0.72000
C          C       0.12490   0.68970   0.79200
O          O       0.20590   0.82580   0.09560
C          C       0.16120   0.74430   0.20280
C          C       0.10930   0.75110   0.34680
O          O       0.20590   0.67420   0.90440
O          O       0.79410   0.82580   0.90440
C          C       0.82840   0.80230   0.73030
C          C       0.85440   0.80570   0.65840
C          C       0.90110   0.69310   0.72000
C          C       0.87510   0.68970   0.79200
O          O       0.78370   0.50000   0.00000
C          C       0.69440   0.50000   0.12230
H          H       0.81560   0.50000   0.00000
O          O       0.70590   0.92420   0.09560
C          C       0.52490   0.50000   0.33930
H          H       0.54160   0.50000   0.28920
C          C       0.52240   0.50000   0.50000
C          C       0.59010   0.50000   0.42570
C          C       0.54410   0.50000   0.42130
C          C       0.61390   0.50000   0.50000
H          H       0.64480   0.50000   0.50000
C          C       0.66120   0.50570   0.20280
C          C       0.67160   0.94770   0.26970
C          C       0.64560   0.94430   0.34160
C          C       0.60930   0.99890   0.34680
C          C       0.59890   0.55690   0.28000
C          C       0.62490   0.56030   0.20800
O          O       0.21630   0.50000   0.00000
C          C       0.30560   0.50000   0.12230
H          H       0.18440   0.50000   0.00000
O          O       0.29410   0.57580   0.09560
C          C       0.47510   0.50000   0.33930
H          H       0.45840   0.50000   0.28920
C          C       0.47760   0.50000   0.50000
C          C       0.40990   0.50000   0.42570
C          C       0.45590   0.50000   0.42130
C          C       0.38610   0.50000   0.50000
H          H       0.35520   0.50000   0.50000
C          C       0.39070   0.50110   0.34680
C          C       0.30560   0.50000   0.87770
O          O       0.29410   0.92420   0.90440
C          C       0.47510   0.50000   0.66070
H          H       0.45840   0.50000   0.71080
C          C       0.40990   0.50000   0.57430
C          C       0.45590   0.50000   0.57870
O          O       0.29410   0.92420   0.09560
C          C       0.33880   0.50570   0.20280
C          C       0.32840   0.94770   0.26970
C          C       0.35440   0.94430   0.34160
C          C       0.40110   0.55690   0.28000
C          C       0.37510   0.56030   0.20800
C          C       0.69440   0.50000   0.87770
O          O       0.70590   0.57580   0.90440
C          C       0.52490   0.50000   0.66070
H          H       0.54160   0.50000   0.71080
C          C       0.59010   0.50000   0.57430
C          C       0.54410   0.50000   0.57870
C          C       0.66120   0.99430   0.79720
C          C       0.67160   0.55230   0.73030
C          C       0.64560   0.55570   0.65840
C          C       0.60930   0.50110   0.65320
C          C       0.59890   0.94310   0.72000
C          C       0.62490   0.93970   0.79200
O          O       0.70590   0.57580   0.09560
O          O       0.70590   0.92420   0.90440
O          O       0.29410   0.57580   0.90440
C          C       0.33880   0.99430   0.79720
C          C       0.32840   0.55230   0.73030
C          C       0.35440   0.55570   0.65840
C          C       0.39070   0.50110   0.65320
C          C       0.40110   0.94310   0.72000
C          C       0.37510   0.93970   0.79200
H          H       0.43040   0.60130   0.28080
H          H       0.38460   0.60820   0.15520
H          H       0.34550   0.89690   0.39510
H          H       0.29910   0.90290   0.26680
H          H       0.20210   0.65770   0.27270
H          H       0.11750   0.86230   0.15680
H          H       0.06940   0.85060   0.28240
H          H       0.15420   0.64590   0.39470
H          H       0.11540   0.64180   0.84480
H          H       0.06970   0.64830   0.71710
H          H       0.15510   0.85360   0.60560
H          H       0.20090   0.84710   0.73320
H          H       0.38460   0.89180   0.84480
H          H       0.34550   0.60310   0.60490
H          H       0.29910   0.59710   0.73320
H          H       0.43030   0.89830   0.71710
H          H       0.70090   0.90290   0.26680
H          H       0.61540   0.60820   0.15520
H          H       0.65510   0.89640   0.39440
H          H       0.56970   0.60170   0.28290
H          H       0.65510   0.60360   0.60560
H          H       0.70070   0.59760   0.73200
H          H       0.61540   0.89180   0.84480
H          H       0.56980   0.89780   0.71830
H          H       0.88190   0.63820   0.84390
H          H       0.93060   0.64940   0.71760
H          H       0.79790   0.84230   0.72730
H          H       0.84580   0.85410   0.60530
H          H       0.88460   0.85820   0.15520
H          H       0.79910   0.65290   0.26680
H          H       0.84550   0.64690   0.39510
H          H       0.93030   0.85170   0.28290
