data_crystal

_cell_length_a    19.70180
_cell_length_b    19.77640
_cell_length_c    20.85510
_cell_angle_alpha 87.85000
_cell_angle_beta  -81.17000
_cell_angle_gamma 79.91000

_symmetry_space_group_name_Hall 'P 1'
_symmetry_space_group_name_H-M  'P 1'

loop_
_symmetry_equiv_pos_as_xyz
 'x,y,z'

loop_
_atom_site_label
_atom_site_type_symbol
_atom_site_fract_x
_atom_site_fract_y
_atom_site_fract_z
Cd         Cd      0.11390   0.18100   0.74260
S          S       0.17850   0.14550   0.63250
S          S       0.04330   0.09010   0.79170
S          S       0.22270   0.18960   0.79280
C          C       0.11440   0.14210   0.58270
C          C       0.06440   0.09990   0.60010
H          H       0.06370   0.07560   0.64020
C          C       0.01670   0.09290   0.56110
H          H       0.48280   0.06480   0.57560
C          C       0.01600   0.12510   0.50100
C          C       0.46750   0.11760   0.45840
H          H       0.43410   0.08860   0.47130
C          C       0.46780   0.15010   0.40100
H          H       0.43410   0.14420   0.37470
C          C       0.01750   0.19320   0.37840
C          C       0.02160   0.22490   0.31660
C          C       0.07180   0.26680   0.29740
H          H       0.07460   0.28790   0.25560
C          C       0.11760   0.27780   0.33890
H          H       0.15090   0.30670   0.32500
C          C       0.11570   0.24760   0.40030
C          C       0.16300   0.25660   0.44320
H          H       0.19640   0.28570   0.43070
C          C       0.16090   0.22390   0.50220
H          H       0.19230   0.23200   0.53040
C          C       0.11340   0.17820   0.52280
C          C       0.06460   0.16950   0.48140
C          C       0.06540   0.20370   0.42120
C          C       0.04140   0.08520   0.87620
C          C       0.06290   0.13530   0.90980
H          H       0.07850   0.17320   0.88640
C          C       0.06220   0.13160   0.97640
H          H       0.07840   0.16620   0.99730
C          C       0.03820   0.07840   0.01300
C          C       0.03240   0.07490   0.08260
H          H       0.04740   0.10950   0.10460
C          C       0.00650   0.02450   0.11720
H          H       0.00330   0.02460   0.16320
C          C       0.01390   0.02700   0.98160
C          C       0.01660   0.02980   0.91280
C          C       0.20140   0.23230   0.86750
C          C       0.24570   0.21900   0.91600
C          C       0.30890   0.16990   0.90790
H          H       0.32170   0.14440   0.86890
C          C       0.35080   0.15880   0.95340
H          H       0.39280   0.12640   0.94540
C          C       0.22740   0.25590   0.97560
C          C       0.16590   0.30570   0.98600
C          C       0.12430   0.31820   0.93730
H          H       0.08320   0.35190   0.94360
C          C       0.14200   0.28220   0.87950
H          H       0.11250   0.29200   0.84710
S          S       0.45680   0.40990   0.20830
C          C       0.45850   0.41480   0.12380
C          C       0.43710   0.36470   0.09020
H          H       0.42150   0.32680   0.11360
C          C       0.43790   0.36840   0.02360
H          H       0.42170   0.33380   0.00270
C          C       0.46180   0.42160   0.98700
C          C       0.46770   0.42510   0.91740
H          H       0.45260   0.39050   0.89540
C          C       0.49360   0.47550   0.88280
H          H       0.49670   0.47540   0.83680
C          C       0.48620   0.47300   0.01840
C          C       0.48330   0.47020   0.08720
S          S       0.27730   0.31040   0.20720
C          C       0.29850   0.26770   0.13250
C          C       0.25420   0.28100   0.08400
C          C       0.19100   0.33010   0.09210
H          H       0.17830   0.35560   0.13110
C          C       0.14920   0.34120   0.04660
H          H       0.10720   0.37360   0.05460
C          C       0.27260   0.24410   0.02440
C          C       0.33410   0.19430   0.01400
C          C       0.37570   0.18180   0.06270
H          H       0.41690   0.14810   0.05640
C          C       0.35800   0.21780   0.12050
H          H       0.38750   0.20800   0.15290
Cd         Cd      0.38610   0.31900   0.25740
S          S       0.32150   0.35450   0.36750
S          S       0.03190   0.29330   0.74060
C          C       0.38550   0.35790   0.41730
C          C       0.43560   0.40010   0.39990
H          H       0.43630   0.42440   0.35980
C          C       0.48330   0.40710   0.43890
H          H       0.01720   0.43520   0.42440
C          C       0.48400   0.37490   0.49900
C          C       0.03250   0.38240   0.54160
H          H       0.06600   0.41140   0.52870
C          C       0.03210   0.34990   0.59900
H          H       0.06600   0.35580   0.62530
C          C       0.48250   0.30680   0.62160
C          C       0.47840   0.27510   0.68340
C          C       0.42820   0.23320   0.70260
H          H       0.42550   0.21210   0.74440
C          C       0.38250   0.22220   0.66110
H          H       0.34910   0.19330   0.67500
C          C       0.38430   0.25240   0.59970
C          C       0.33710   0.24340   0.55680
H          H       0.30360   0.21430   0.56930
C          C       0.33900   0.27610   0.49780
H          H       0.30770   0.26800   0.46960
C          C       0.38660   0.32180   0.47720
C          C       0.43540   0.33050   0.51860
C          C       0.43460   0.29630   0.57880
S          S       0.46820   0.20670   0.25940
Cd         Cd      0.22370   0.05290   0.22660
N          N       0.34070   0.05990   0.23090
H          H       0.36890   0.01920   0.22020
H          H       0.35510   0.09320   0.20340
N          N       0.19320  -0.04100   0.28850
H          H       0.21990  -0.08060   0.27190
H          H       0.20060  -0.03710   0.33010
N          N       0.10000   0.06450   0.23690
H          H       0.08010   0.10930   0.24350
H          H       0.08780   0.05060   0.19980
N          N       0.27580  -0.02120   0.13780
H          H       0.31680  -0.04620   0.14660
H          H       0.24690  -0.05070   0.13150
N          N       0.21470   0.12060   0.13190
H          H       0.17160   0.14690   0.13480
H          H       0.24680   0.14910   0.12720
N          N       0.21700   0.11990   0.31520
H          H       0.18710   0.15990   0.31080
H          H       0.19930   0.09780   0.35140
C          C       0.34130   0.07810   0.30230
H          H       0.33470   0.03750   0.33040
H          H       0.38720   0.09000   0.30660
C          C       0.28620   0.13580   0.32370
H          H       0.29480   0.17740   0.29810
H          H       0.28650   0.14510   0.37000
C          C       0.11560  -0.04290   0.28720
H          H       0.11070  -0.06390   0.24610
H          H       0.09840  -0.07220   0.32350
C          C       0.07500   0.02210   0.29230
H          H       0.07860   0.04340   0.33360
H          H       0.02550   0.01890   0.29180
C          C       0.28850   0.02070   0.07970
H          H       0.29730  -0.00860   0.04080
H          H       0.33020   0.04180   0.08100
C          C       0.22680   0.07570   0.07560
H          H       0.23500   0.10290   0.03520
H          H       0.18500   0.05450   0.07420
Cd         Cd      0.27640   0.44710   0.77340
N          N       0.15930   0.44010   0.76910
H          H       0.13110   0.48080   0.77980
H          H       0.14490   0.40680   0.79660
N          N       0.30680   0.54100   0.71150
H          H       0.28020   0.58060   0.72810
H          H       0.29940   0.53710   0.66990
N          N       0.40000   0.43550   0.76310
H          H       0.41990   0.39070   0.75650
H          H       0.41220   0.44940   0.80020
N          N       0.22420   0.52120   0.86220
H          H       0.18320   0.54620   0.85340
H          H       0.25300   0.55070   0.86850
N          N       0.28530   0.37940   0.86810
H          H       0.32850   0.35310   0.86520
H          H       0.25310   0.35090   0.87280
N          N       0.28300   0.38010   0.68480
H          H       0.31290   0.34010   0.68920
H          H       0.30070   0.40220   0.64860
C          C       0.15860   0.42190   0.69770
H          H       0.16520   0.46250   0.66960
H          H       0.11280   0.41000   0.69340
C          C       0.21380   0.36420   0.67630
H          H       0.20520   0.32260   0.70190
H          H       0.21350   0.35490   0.63000
C          C       0.38440   0.54290   0.71280
H          H       0.38930   0.56390   0.75390
H          H       0.40160   0.57220   0.67650
C          C       0.42500   0.47790   0.70770
H          H       0.42150   0.45660   0.66640
H          H       0.47460   0.48110   0.70820
C          C       0.21150   0.47930   0.92030
H          H       0.20270   0.50860   0.95920
H          H       0.16980   0.45820   0.91900
C          C       0.27330   0.42430   0.92440
H          H       0.26510   0.39710   0.96480
H          H       0.31500   0.44550   0.92580
Cd         Cd      0.61390   0.68100   0.74260
S          S       0.67850   0.64560   0.63250
S          S       0.54320   0.59000   0.79170
S          S       0.72270   0.68950   0.79280
C          C       0.61450   0.64210   0.58270
C          C       0.56440   0.60000   0.60010
H          H       0.56370   0.57560   0.64020
C          C       0.51680   0.59280   0.56110
H          H       0.98280   0.56480   0.57560
C          C       0.51600   0.62510   0.50100
C          C       0.96760   0.61760   0.45840
H          H       0.93400   0.58860   0.47130
C          C       0.96790   0.65010   0.40100
H          H       0.93400   0.64420   0.37470
C          C       0.51750   0.69320   0.37840
C          C       0.52160   0.72490   0.31660
C          C       0.57180   0.76680   0.29740
H          H       0.57450   0.78790   0.25560
C          C       0.61750   0.77780   0.33890
H          H       0.65090   0.80670   0.32500
C          C       0.61570   0.74760   0.40030
C          C       0.66290   0.75660   0.44320
H          H       0.69640   0.78560   0.43070
C          C       0.66100   0.72390   0.50220
H          H       0.69230   0.73200   0.53040
C          C       0.61340   0.67820   0.52280
C          C       0.56460   0.66950   0.48140
C          C       0.56540   0.70360   0.42120
C          C       0.54150   0.58520   0.87620
C          C       0.56290   0.63540   0.90980
H          H       0.57850   0.67330   0.88640
C          C       0.56220   0.63160   0.97640
H          H       0.57830   0.66630   0.99730
C          C       0.53820   0.57840   0.01300
C          C       0.53230   0.57490   0.08260
H          H       0.54740   0.60950   0.10460
C          C       0.50640   0.52440   0.11720
H          H       0.50330   0.52450   0.16320
C          C       0.51380   0.52700   0.98160
C          C       0.51670   0.52990   0.91280
C          C       0.70150   0.73230   0.86750
C          C       0.74580   0.71900   0.91600
C          C       0.80900   0.66990   0.90790
H          H       0.82170   0.64440   0.86890
C          C       0.85080   0.65880   0.95340
H          H       0.89280   0.62640   0.94540
C          C       0.72740   0.75590   0.97560
C          C       0.66590   0.80560   0.98600
C          C       0.62430   0.81820   0.93730
H          H       0.58310   0.85190   0.94360
C          C       0.64200   0.78220   0.87950
H          H       0.61250   0.79200   0.84710
S          S       0.95670   0.90990   0.20830
C          C       0.95860   0.91480   0.12380
C          C       0.93710   0.86460   0.09020
H          H       0.92150   0.82680   0.11360
C          C       0.93780   0.86840   0.02360
H          H       0.92170   0.83380   0.00270
C          C       0.96180   0.92160   0.98700
C          C       0.96760   0.92510   0.91740
H          H       0.95260   0.89060   0.89540
C          C       0.99360   0.97550   0.88280
H          H       0.99670   0.97540   0.83680
C          C       0.98610   0.97300   0.01840
C          C       0.98330   0.97020   0.08720
S          S       0.77730   0.81040   0.20720
C          C       0.79860   0.76770   0.13250
C          C       0.75430   0.78100   0.08400
C          C       0.69110   0.83010   0.09210
H          H       0.67830   0.85560   0.13110
C          C       0.64920   0.84120   0.04660
H          H       0.60720   0.87360   0.05460
C          C       0.77260   0.74410   0.02440
C          C       0.83410   0.69440   0.01400
C          C       0.87570   0.68180   0.06270
H          H       0.91690   0.64820   0.05640
C          C       0.85800   0.71780   0.12050
H          H       0.88750   0.70800   0.15290
Cd         Cd      0.88610   0.81900   0.25740
S          S       0.82150   0.85450   0.36750
S          S       0.53190   0.79330   0.74060
C          C       0.88560   0.85790   0.41730
C          C       0.93560   0.90010   0.39990
H          H       0.93630   0.92450   0.35980
C          C       0.98330   0.90710   0.43890
H          H       0.51730   0.93520   0.42440
C          C       0.98400   0.87490   0.49900
C          C       0.53250   0.88240   0.54160
H          H       0.56590   0.91140   0.52870
C          C       0.53220   0.85000   0.59900
H          H       0.56600   0.85580   0.62530
C          C       0.98250   0.80680   0.62160
C          C       0.97840   0.77520   0.68340
C          C       0.92820   0.73320   0.70260
H          H       0.92550   0.71210   0.74440
C          C       0.88250   0.72220   0.66110
H          H       0.84910   0.69330   0.67500
C          C       0.88430   0.75240   0.59970
C          C       0.83700   0.74350   0.55680
H          H       0.80360   0.71440   0.56930
C          C       0.83910   0.77610   0.49780
H          H       0.80770   0.76810   0.46960
C          C       0.88660   0.82170   0.47720
C          C       0.93540   0.83060   0.51860
C          C       0.93460   0.79630   0.57880
S          S       0.96810   0.70660   0.25940
Cd         Cd      0.72360   0.55290   0.22660
N          N       0.84070   0.55990   0.23090
H          H       0.86890   0.51920   0.22020
H          H       0.85510   0.59320   0.20340
N          N       0.69320   0.45900   0.28850
H          H       0.71980   0.41940   0.27190
H          H       0.70060   0.46290   0.33010
N          N       0.60000   0.56450   0.23690
H          H       0.58010   0.60930   0.24350
H          H       0.58780   0.55060   0.19980
N          N       0.77580   0.47880   0.13780
H          H       0.81680   0.45380   0.14660
H          H       0.74700   0.44920   0.13150
N          N       0.71470   0.62060   0.13190
H          H       0.67150   0.64690   0.13480
H          H       0.74690   0.64900   0.12720
N          N       0.71700   0.61990   0.31520
H          H       0.68710   0.65990   0.31080
H          H       0.69930   0.59780   0.35140
C          C       0.84140   0.57810   0.30230
H          H       0.83480   0.53750   0.33040
H          H       0.88720   0.58990   0.30660
C          C       0.78620   0.63580   0.32370
H          H       0.79480   0.67750   0.29810
H          H       0.78650   0.64510   0.37000
C          C       0.61560   0.45710   0.28720
H          H       0.61080   0.43610   0.24610
H          H       0.59840   0.42780   0.32350
C          C       0.57500   0.52210   0.29230
H          H       0.57860   0.54340   0.33360
H          H       0.52550   0.51880   0.29180
C          C       0.78850   0.52070   0.07970
H          H       0.79730   0.49140   0.04080
H          H       0.83020   0.54180   0.08100
C          C       0.72670   0.57560   0.07560
H          H       0.73490   0.60290   0.03520
H          H       0.68500   0.55450   0.07420
Cd         Cd      0.77640   0.94710   0.77340
N          N       0.65930   0.94010   0.76910
H          H       0.63110   0.98090   0.77980
H          H       0.64500   0.90680   0.79660
N          N       0.80680   1.04100   0.71150
H          H       0.78010   1.08050   0.72810
H          H       0.79940   1.03710   0.66990
N          N       0.90000   0.93550   0.76310
H          H       0.91990   0.89070   0.75650
H          H       0.91220   0.94940   0.80020
N          N       0.72420   1.02120   0.86220
H          H       0.68320   1.04620   0.85340
H          H       0.75310   1.05070   0.86850
N          N       0.78530   0.87940   0.86810
H          H       0.82850   0.85310   0.86520
H          H       0.75310   0.85100   0.87280
N          N       0.78300   0.88010   0.68480
H          H       0.81290   0.84010   0.68920
H          H       0.80070   0.90220   0.64860
C          C       0.65870   0.92200   0.69770
H          H       0.66530   0.96250   0.66960
H          H       0.61280   0.91000   0.69340
C          C       0.71380   0.86420   0.67630
H          H       0.70520   0.82260   0.70190
H          H       0.71350   0.85490   0.63000
C          C       0.88440   1.04290   0.71280
H          H       0.88930   1.06390   0.75390
H          H       0.90160   1.07210   0.67650
C          C       0.92510   0.97780   0.70770
H          H       0.92140   0.95660   0.66640
H          H       0.97450   0.98110   0.70820
C          C       0.71150   0.97930   0.92030
H          H       0.70270   1.00860   0.95920
H          H       0.66980   0.95820   0.91900
C          C       0.77330   0.92440   0.92440
H          H       0.76510   0.89710   0.96480
H          H       0.81500   0.94550   0.92580
Cd         Cd      0.11390   0.68100   0.74260
S          S       0.17850   0.64560   0.63250
S          S       0.04320   0.59000   0.79170
S          S       0.22270   0.68950   0.79280
C          C       0.11450   0.64210   0.58270
C          C       0.06440   0.60000   0.60010
H          H       0.06370   0.57560   0.64020
C          C       0.01680   0.59280   0.56110
H          H       0.48280   0.56480   0.57560
C          C       0.01600   0.62510   0.50100
C          C       0.46760   0.61760   0.45840
H          H       0.43400   0.58860   0.47130
C          C       0.46790   0.65010   0.40100
H          H       0.43400   0.64420   0.37470
C          C       0.01750   0.69320   0.37840
C          C       0.02160   0.72490   0.31660
C          C       0.07180   0.76680   0.29740
H          H       0.07450   0.78790   0.25560
C          C       0.11750   0.77780   0.33890
H          H       0.15090   0.80670   0.32500
C          C       0.11570   0.74760   0.40030
C          C       0.16290   0.75660   0.44320
H          H       0.19640   0.78560   0.43070
C          C       0.16100   0.72390   0.50220
H          H       0.19230   0.73200   0.53040
C          C       0.11340   0.67820   0.52280
C          C       0.06460   0.66950   0.48140
C          C       0.06540   0.70360   0.42120
C          C       0.04150   0.58520   0.87620
C          C       0.06290   0.63540   0.90980
H          H       0.07850   0.67330   0.88640
C          C       0.06220   0.63160   0.97640
H          H       0.07830   0.66630   0.99730
C          C       0.03820   0.57840   0.01300
C          C       0.03230   0.57490   0.08260
H          H       0.04740   0.60950   0.10460
C          C       0.00640   0.52440   0.11720
H          H       0.00330   0.52450   0.16320
C          C       0.01380   0.52700   0.98160
C          C       0.01670   0.52990   0.91280
C          C       0.20150   0.73230   0.86750
C          C       0.24580   0.71900   0.91600
C          C       0.30900   0.66990   0.90790
H          H       0.32170   0.64440   0.86890
C          C       0.35080   0.65880   0.95340
H          H       0.39280   0.62640   0.94540
C          C       0.22740   0.75590   0.97560
C          C       0.16590   0.80560   0.98600
C          C       0.12430   0.81820   0.93730
H          H       0.08310   0.85190   0.94360
C          C       0.14200   0.78220   0.87950
H          H       0.11250   0.79200   0.84710
S          S       0.45670   0.90990   0.20830
C          C       0.45860   0.91480   0.12380
C          C       0.43710   0.86460   0.09020
H          H       0.42150   0.82680   0.11360
C          C       0.43780   0.86840   0.02360
H          H       0.42170   0.83380   0.00270
C          C       0.46180   0.92160   0.98700
C          C       0.46760   0.92510   0.91740
H          H       0.45260   0.89060   0.89540
C          C       0.49360   0.97550   0.88280
H          H       0.49670   0.97540   0.83680
C          C       0.48610   0.97300   0.01840
C          C       0.48330   0.97020   0.08720
S          S       0.27730   0.81040   0.20720
C          C       0.29860   0.76770   0.13250
C          C       0.25430   0.78100   0.08400
C          C       0.19110   0.83010   0.09210
H          H       0.17830   0.85560   0.13110
C          C       0.14920   0.84120   0.04660
H          H       0.10720   0.87360   0.05460
C          C       0.27260   0.74410   0.02440
C          C       0.33410   0.69440   0.01400
C          C       0.37570   0.68180   0.06270
H          H       0.41690   0.64820   0.05640
C          C       0.35800   0.71780   0.12050
H          H       0.38750   0.70800   0.15290
Cd         Cd      0.38610   0.81900   0.25740
S          S       0.32150   0.85450   0.36750
S          S       0.03190   0.79330   0.74060
C          C       0.38560   0.85790   0.41730
C          C       0.43560   0.90010   0.39990
H          H       0.43630   0.92450   0.35980
C          C       0.48330   0.90710   0.43890
H          H       0.01730   0.93520   0.42440
C          C       0.48400   0.87490   0.49900
C          C       0.03250   0.88240   0.54160
H          H       0.06590   0.91140   0.52870
C          C       0.03220   0.85000   0.59900
H          H       0.06600   0.85580   0.62530
C          C       0.48250   0.80680   0.62160
C          C       0.47840   0.77520   0.68340
C          C       0.42820   0.73320   0.70260
H          H       0.42550   0.71210   0.74440
C          C       0.38250   0.72220   0.66110
H          H       0.34910   0.69330   0.67500
C          C       0.38430   0.75240   0.59970
C          C       0.33700   0.74350   0.55680
H          H       0.30360   0.71440   0.56930
C          C       0.33910   0.77610   0.49780
H          H       0.30770   0.76810   0.46960
C          C       0.38660   0.82170   0.47720
C          C       0.43540   0.83060   0.51860
C          C       0.43460   0.79630   0.57880
S          S       0.46810   0.70660   0.25940
Cd         Cd      0.22360   0.55290   0.22660
N          N       0.34070   0.55990   0.23090
H          H       0.36890   0.51920   0.22020
H          H       0.35510   0.59320   0.20340
N          N       0.19320   0.45900   0.28850
H          H       0.21980   0.41940   0.27190
H          H       0.20060   0.46290   0.33010
N          N       0.10000   0.56450   0.23690
H          H       0.08010   0.60930   0.24350
H          H       0.08780   0.55060   0.19980
N          N       0.27580   0.47880   0.13780
H          H       0.31680   0.45380   0.14660
H          H       0.24700   0.44920   0.13150
N          N       0.21470   0.62060   0.13190
H          H       0.17150   0.64690   0.13480
H          H       0.24690   0.64900   0.12720
N          N       0.21700   0.61990   0.31520
H          H       0.18710   0.65990   0.31080
H          H       0.19930   0.59780   0.35140
C          C       0.34140   0.57810   0.30230
H          H       0.33480   0.53750   0.33040
H          H       0.38720   0.58990   0.30660
C          C       0.28620   0.63580   0.32370
H          H       0.29480   0.67750   0.29810
H          H       0.28650   0.64510   0.37000
C          C       0.11560   0.45710   0.28720
H          H       0.11080   0.43610   0.24610
H          H       0.09840   0.42780   0.32350
C          C       0.07500   0.52210   0.29230
H          H       0.07860   0.54340   0.33360
H          H       0.02550   0.51880   0.29180
C          C       0.28850   0.52070   0.07970
H          H       0.29730   0.49140   0.04080
H          H       0.33020   0.54180   0.08100
C          C       0.22670   0.57560   0.07560
H          H       0.23490   0.60290   0.03520
H          H       0.18500   0.55450   0.07420
Cd         Cd      0.27640   0.94710   0.77340
N          N       0.15930   0.94010   0.76910
H          H       0.13110   0.98090   0.77980
H          H       0.14500   0.90680   0.79660
N          N       0.30680   1.04100   0.71150
H          H       0.28010   1.08050   0.72810
H          H       0.29940   1.03710   0.66990
N          N       0.40000   0.93550   0.76310
H          H       0.41990   0.89070   0.75650
H          H       0.41220   0.94940   0.80020
N          N       0.22420   1.02120   0.86220
H          H       0.18320   1.04620   0.85340
H          H       0.25310   1.05070   0.86850
N          N       0.28530   0.87940   0.86810
H          H       0.32850   0.85310   0.86520
H          H       0.25310   0.85100   0.87280
N          N       0.28300   0.88010   0.68480
H          H       0.31290   0.84010   0.68920
H          H       0.30070   0.90220   0.64860
C          C       0.15870   0.92200   0.69770
H          H       0.16530   0.96250   0.66960
H          H       0.11280   0.91000   0.69340
C          C       0.21380   0.86420   0.67630
H          H       0.20520   0.82260   0.70190
H          H       0.21350   0.85490   0.63000
C          C       0.38440   1.04290   0.71280
H          H       0.38930   1.06390   0.75390
H          H       0.40160   1.07210   0.67650
C          C       0.42510   0.97780   0.70770
H          H       0.42140   0.95660   0.66640
H          H       0.47450   0.98110   0.70820
C          C       0.21150   0.97930   0.92030
H          H       0.20270   1.00860   0.95920
H          H       0.16980   0.95820   0.91900
C          C       0.27330   0.92440   0.92440
H          H       0.26510   0.89710   0.96480
H          H       0.31500   0.94550   0.92580
Cd         Cd      0.61390   0.18100   0.74260
S          S       0.67850   0.14550   0.63250
S          S       0.54330   0.09010   0.79170
S          S       0.72270   0.18960   0.79280
C          C       0.61440   0.14210   0.58270
C          C       0.56440   0.09990   0.60010
H          H       0.56370   0.07560   0.64020
C          C       0.51670   0.09290   0.56110
H          H       0.98280   0.06480   0.57560
C          C       0.51600   0.12510   0.50100
C          C       0.96750   0.11760   0.45840
H          H       0.93410   0.08860   0.47130
C          C       0.96780   0.15010   0.40100
H          H       0.93410   0.14420   0.37470
C          C       0.51750   0.19320   0.37840
C          C       0.52160   0.22490   0.31660
C          C       0.57180   0.26680   0.29740
H          H       0.57460   0.28790   0.25560
C          C       0.61760   0.27780   0.33890
H          H       0.65090   0.30670   0.32500
C          C       0.61570   0.24760   0.40030
C          C       0.66300   0.25660   0.44320
H          H       0.69640   0.28570   0.43070
C          C       0.66090   0.22390   0.50220
H          H       0.69230   0.23200   0.53040
C          C       0.61340   0.17820   0.52280
C          C       0.56460   0.16950   0.48140
C          C       0.56540   0.20370   0.42120
C          C       0.54140   0.08520   0.87620
C          C       0.56290   0.13530   0.90980
H          H       0.57850   0.17320   0.88640
C          C       0.56220   0.13160   0.97640
H          H       0.57840   0.16620   0.99730
C          C       0.53820   0.07840   0.01300
C          C       0.53240   0.07490   0.08260
H          H       0.54740   0.10950   0.10460
C          C       0.50650   0.02450   0.11720
H          H       0.50330   0.02460   0.16320
C          C       0.51390   0.02700   0.98160
C          C       0.51660   0.02980   0.91280
C          C       0.70140   0.23230   0.86750
C          C       0.74570   0.21900   0.91600
C          C       0.80890   0.16990   0.90790
H          H       0.82170   0.14440   0.86890
C          C       0.85080   0.15880   0.95340
H          H       0.89280   0.12640   0.94540
C          C       0.72740   0.25590   0.97560
C          C       0.66590   0.30570   0.98600
C          C       0.62430   0.31820   0.93730
H          H       0.58320   0.35190   0.94360
C          C       0.64200   0.28220   0.87950
H          H       0.61250   0.29200   0.84710
S          S       0.95680   0.40990   0.20830
C          C       0.95850   0.41480   0.12380
C          C       0.93710   0.36470   0.09020
H          H       0.92150   0.32680   0.11360
C          C       0.93790   0.36840   0.02360
H          H       0.92170   0.33380   0.00270
C          C       0.96180   0.42160   0.98700
C          C       0.96770   0.42510   0.91740
H          H       0.95260   0.39050   0.89540
C          C       0.99360   0.47550   0.88280
H          H       0.99670   0.47540   0.83680
C          C       0.98620   0.47300   0.01840
C          C       0.98330   0.47020   0.08720
S          S       0.77730   0.31040   0.20720
C          C       0.79850   0.26770   0.13250
C          C       0.75420   0.28100   0.08400
C          C       0.69100   0.33010   0.09210
H          H       0.67830   0.35560   0.13110
C          C       0.64920   0.34120   0.04660
H          H       0.60720   0.37360   0.05460
C          C       0.77260   0.24410   0.02440
C          C       0.83410   0.19430   0.01400
C          C       0.87570   0.18180   0.06270
H          H       0.91690   0.14810   0.05640
C          C       0.85800   0.21780   0.12050
H          H       0.88750   0.20800   0.15290
Cd         Cd      0.88610   0.31900   0.25740
S          S       0.82150   0.35450   0.36750
S          S       0.53190   0.29330   0.74060
C          C       0.88550   0.35790   0.41730
C          C       0.93560   0.40010   0.39990
H          H       0.93630   0.42440   0.35980
C          C       0.98330   0.40710   0.43890
H          H       0.51720   0.43520   0.42440
C          C       0.98400   0.37490   0.49900
C          C       0.53250   0.38240   0.54160
H          H       0.56600   0.41140   0.52870
C          C       0.53210   0.34990   0.59900
H          H       0.56600   0.35580   0.62530
C          C       0.98250   0.30680   0.62160
C          C       0.97840   0.27510   0.68340
C          C       0.92820   0.23320   0.70260
H          H       0.92550   0.21210   0.74440
C          C       0.88250   0.22220   0.66110
H          H       0.84910   0.19330   0.67500
C          C       0.88430   0.25240   0.59970
C          C       0.83710   0.24340   0.55680
H          H       0.80360   0.21430   0.56930
C          C       0.83900   0.27610   0.49780
H          H       0.80770   0.26800   0.46960
C          C       0.88660   0.32180   0.47720
C          C       0.93540   0.33050   0.51860
C          C       0.93460   0.29630   0.57880
S          S       0.96820   0.20670   0.25940
Cd         Cd      0.72370   0.05290   0.22660
N          N       0.84070   0.05990   0.23090
H          H       0.86890   0.01920   0.22020
H          H       0.85510   0.09320   0.20340
N          N       0.69320  -0.04100   0.28850
H          H       0.71990  -0.08060   0.27190
H          H       0.70060  -0.03710   0.33010
N          N       0.60000   0.06450   0.23690
H          H       0.58010   0.10930   0.24350
H          H       0.58780   0.05060   0.19980
N          N       0.77580  -0.02120   0.13780
H          H       0.81680  -0.04620   0.14660
H          H       0.74690  -0.05070   0.13150
N          N       0.71470   0.12060   0.13190
H          H       0.67160   0.14690   0.13480
H          H       0.74680   0.14910   0.12720
N          N       0.71700   0.11990   0.31520
H          H       0.68710   0.15990   0.31080
H          H       0.69930   0.09780   0.35140
C          C       0.84130   0.07810   0.30230
H          H       0.83470   0.03750   0.33040
H          H       0.88720   0.09000   0.30660
C          C       0.78620   0.13580   0.32370
H          H       0.79480   0.17740   0.29810
H          H       0.78650   0.14510   0.37000
C          C       0.61560  -0.04290   0.28720
H          H       0.61070  -0.06390   0.24610
H          H       0.59840  -0.07220   0.32350
C          C       0.57500   0.02210   0.29230
H          H       0.57860   0.04340   0.33360
H          H       0.52550   0.01890   0.29180
C          C       0.78850   0.02070   0.07970
H          H       0.79730  -0.00860   0.04080
H          H       0.83020   0.04180   0.08100
C          C       0.72680   0.07570   0.07560
H          H       0.73500   0.10290   0.03520
H          H       0.68500   0.05450   0.07420
Cd         Cd      0.77640   0.44710   0.77340
N          N       0.65930   0.44010   0.76910
H          H       0.63110   0.48080   0.77980
H          H       0.64490   0.40680   0.79660
N          N       0.80680   0.54100   0.71150
H          H       0.78020   0.58060   0.72810
H          H       0.79940   0.53710   0.66990
N          N       0.90000   0.43550   0.76310
H          H       0.91990   0.39070   0.75650
H          H       0.91220   0.44940   0.80020
N          N       0.72420   0.52120   0.86220
H          H       0.68320   0.54620   0.85340
H          H       0.75300   0.55070   0.86850
N          N       0.78530   0.37940   0.86810
H          H       0.82850   0.35310   0.86520
H          H       0.75310   0.35090   0.87280
N          N       0.78300   0.38010   0.68480
H          H       0.81290   0.34010   0.68920
H          H       0.80070   0.40220   0.64860
C          C       0.65860   0.42190   0.69770
H          H       0.66520   0.46250   0.66960
H          H       0.61280   0.41000   0.69340
C          C       0.71380   0.36420   0.67630
H          H       0.70520   0.32260   0.70190
H          H       0.71350   0.35490   0.63000
C          C       0.88440   0.54290   0.71280
H          H       0.88930   0.56390   0.75390
H          H       0.90160   0.57220   0.67650
C          C       0.92500   0.47790   0.70770
H          H       0.92150   0.45660   0.66640
H          H       0.97460   0.48110   0.70820
C          C       0.71150   0.47930   0.92030
H          H       0.70270   0.50860   0.95920
H          H       0.66980   0.45820   0.91900
C          C       0.77330   0.42430   0.92440
H          H       0.76510   0.39710   0.96480
H          H       0.81500   0.44550   0.92580
