data_crystal

_cell_length_a    11.61600
_cell_length_b    12.76500
_cell_length_c    17.22000
_cell_angle_alpha 85.12000
_cell_angle_beta  85.32000
_cell_angle_gamma 74.49000

_symmetry_space_group_name_Hall 'P 1'
_symmetry_space_group_name_H-M  'P 1'

loop_
_symmetry_equiv_pos_as_xyz
 'x,y,z'

loop_
_atom_site_label
_atom_site_type_symbol
_atom_site_fract_x
_atom_site_fract_y
_atom_site_fract_z
Cd         Cd      0.52090   0.26760   0.80940
S          S       0.39200   0.30160   0.93910
S          S       0.69020   0.09210   0.83100
S          S       0.56970   0.44550   0.79070
S          S       0.59690   0.78640   0.29090
C          C       0.24200   0.37320   0.92200
C          C       0.19980   0.38300   0.84730
H          H       0.25270   0.35200   0.80540
C          C       0.08330   0.43660   0.83330
H          H       0.05770   0.44160   0.78180
C          C       0.00170   0.48360   0.89240
C          C       0.04070   0.47690   0.96930
C          C       0.16370   0.42120   0.98300
C          C       0.87870   0.53810   0.88030
H          H       0.85120   0.54350   0.82930
C          C       0.80160   0.58160   0.93810
H          H       0.72090   0.61550   0.92690
C          C       0.80060   0.11320   0.88760
C          C       0.81400   0.21720   0.89340
H          H       0.76390   0.27670   0.86500
C          C       0.89690   0.23720   0.93880
H          H       0.90390   0.30940   0.94020
C          C       0.97110   0.15240   0.98300
C          C       0.96210   0.04430   0.97790
C          C       0.05440   0.17060   0.03370
H          H       0.06020   0.24260   0.03810
C          C       0.12480   0.08710   0.07550
H          H       0.17840   0.10240   0.10910
C          C       0.12180   0.97620   0.07120
C          C       0.63450   0.47760   0.69700
C          C       0.75940   0.45400   0.68570
H          H       0.80790   0.41330   0.72550
C          C       0.81230   0.48880   0.61810
H          H       0.89720   0.47280   0.61260
C          C       0.74560   0.54760   0.55640
C          C       0.79530   0.58900   0.48700
H          H       0.88000   0.57270   0.48000
C          C       0.73170   0.64960   0.43020
H          H       0.77170   0.67660   0.38580
C          C       0.60220   0.67460   0.43580
C          C       0.52970   0.73550   0.37810
C          C       0.40690   0.75620   0.38880
H          H       0.35800   0.79860   0.34980
C          C       0.35400   0.71640   0.45510
H          H       0.26930   0.73100   0.46050
C          C       0.42140   0.65550   0.51440
C          C       0.37220   0.60950   0.58300
H          H       0.28790   0.62020   0.58820
C          C       0.43670   0.55170   0.64130
H          H       0.39640   0.52660   0.68640
C          C       0.56670   0.52710   0.63670
C          C       0.61870   0.57210   0.56720
C          C       0.54860   0.63480   0.50720
S          S       0.60800   0.69830   0.06090
C          C       0.75800   0.62680   0.07800
C          C       0.80020   0.61700   0.15270
H          H       0.74730   0.64800   0.19460
C          C       0.91670   0.56340   0.16670
H          H       0.94230   0.55840   0.21820
C          C       0.99830   0.51640   0.10760
C          C       0.95930   0.52310   0.03070
C          C       0.83630   0.57880   0.01700
C          C       0.12130   0.46190   0.11970
H          H       0.14880   0.45650   0.17070
C          C       0.19840   0.41840   0.06190
H          H       0.27910   0.38450   0.07310
S          S       0.30980   0.90790   0.16900
C          C       0.19940   0.88680   0.11240
C          C       0.18600   0.78280   0.10660
H          H       0.23610   0.72330   0.13500
C          C       0.10310   0.76280   0.06120
H          H       0.09610   0.69060   0.05980
C          C       0.02890   0.84760   0.01700
C          C       0.03790   0.95570   0.02210
C          C       0.94560   0.82940   0.96630
H          H       0.93980   0.75740   0.96190
C          C       0.87520   0.91290   0.92450
H          H       0.82160   0.89760   0.89090
C          C       0.87820   0.02380   0.92880
Cd         Cd      0.47910   0.73240   0.19060
S          S       0.43030   0.55450   0.20930
S          S       0.40310   0.21360   0.70910
C          C       0.36550   0.52240   0.30300
C          C       0.24060   0.54600   0.31430
H          H       0.19210   0.58670   0.27450
C          C       0.18770   0.51120   0.38190
H          H       0.10280   0.52720   0.38740
C          C       0.25440   0.45240   0.44360
C          C       0.20470   0.41100   0.51300
H          H       0.12000   0.42730   0.52000
C          C       0.26830   0.35040   0.56980
H          H       0.22830   0.32340   0.61420
C          C       0.39780   0.32540   0.56420
C          C       0.47030   0.26450   0.62190
C          C       0.59310   0.24380   0.61120
H          H       0.64200   0.20140   0.65020
C          C       0.64600   0.28360   0.54490
H          H       0.73070   0.26900   0.53950
C          C       0.57860   0.34450   0.48560
C          C       0.62780   0.39050   0.41700
H          H       0.71210   0.37980   0.41180
C          C       0.56330   0.44830   0.35870
H          H       0.60360   0.47340   0.31360
C          C       0.43330   0.47290   0.36330
C          C       0.38130   0.42790   0.43280
C          C       0.45140   0.36520   0.49280
Cd         Cd      0.58710   0.18230   0.15850
N          N       0.52130   0.22360   0.28570
H          H       0.57730   0.18550   0.31880
H          H       0.51210   0.29590   0.29060
N          N       0.38140   0.17010   0.17130
H          H       0.34250   0.19910   0.12750
H          H       0.37810   0.09970   0.18040
N          N       0.68390  -0.00170   0.19020
H          H       0.74940  -0.00620   0.21730
H          H       0.63340  -0.03380   0.22060
N          N       0.60090   0.09760   0.04000
H          H       0.53170   0.12350   0.01510
H          H       0.66220   0.11130   0.00800
N          N       0.76940   0.23080   0.14320
H          H       0.80720   0.21520   0.18870
H          H       0.81790   0.19250   0.10540
N          N       0.53740   0.35910   0.09410
H          H       0.48900   0.36130   0.05470
H          H       0.49810   0.40920   0.12830
C          C       0.40980   0.19770   0.30710
H          H       0.37150   0.23510   0.35430
H          H       0.42370   0.11820   0.31890
C          C       0.32870   0.23470   0.23950
H          H       0.24840   0.22440   0.25520
H          H       0.31990   0.31310   0.22520
C          C       0.72000  -0.05700   0.11760
H          H       0.73660  -0.13670   0.12920
H          H       0.79450  -0.04070   0.09410
C          C       0.62220  -0.02000   0.06010
H          H       0.64660  -0.06020   0.01220
H          H       0.54750  -0.03590   0.08350
C          C       0.74360   0.34900   0.12110
H          H       0.81800   0.36660   0.09870
H          H       0.71630   0.39010   0.16840
C          C       0.64940   0.38360   0.06270
H          H       0.63450   0.46280   0.04920
H          H       0.67810   0.34510   0.01440
Cd         Cd      0.41290   0.81770   0.84150
N          N       0.47870   0.77640   0.71430
H          H       0.42270   0.81450   0.68120
H          H       0.48790   0.70410   0.70940
N          N       0.61860   0.82990   0.82870
H          H       0.65750   0.80090   0.87250
H          H       0.62190   0.90030   0.81960
N          N       0.31610   1.00170   0.80980
H          H       0.25060   1.00620   0.78270
H          H       0.36660   1.03380   0.77940
N          N       0.39910   0.90240   0.96000
H          H       0.46830   0.87650   0.98490
H          H       0.33780   0.88870   0.99200
N          N       0.23060   0.76920   0.85680
H          H       0.19280   0.78480   0.81130
H          H       0.18210   0.80750   0.89460
N          N       0.46260   0.64090   0.90590
H          H       0.51100   0.63870   0.94530
H          H       0.50190   0.59080   0.87170
C          C       0.59020   0.80230   0.69290
H          H       0.62850   0.76490   0.64570
H          H       0.57630   0.88180   0.68110
C          C       0.67130   0.76530   0.76050
H          H       0.75160   0.77560   0.74480
H          H       0.68010   0.68690   0.77480
C          C       0.28000   1.05700   0.88240
H          H       0.26340   1.13670   0.87080
H          H       0.20550   1.04070   0.90590
C          C       0.37780   1.02000   0.93990
H          H       0.35340   1.06020   0.98780
H          H       0.45250   1.03590   0.91650
C          C       0.25640   0.65100   0.87890
H          H       0.18200   0.63340   0.90130
H          H       0.28370   0.60990   0.83160
C          C       0.35060   0.61640   0.93730
H          H       0.36550   0.53720   0.95080
H          H       0.32190   0.65490   0.98560
