data_crystal

_cell_length_a    14.07020
_cell_length_b    19.59040
_cell_length_c    21.04850
_cell_angle_alpha 90.00000
_cell_angle_beta  92.31000
_cell_angle_gamma 90.00000

_symmetry_space_group_name_Hall 'P 1'
_symmetry_space_group_name_H-M  'P 1'

loop_
_symmetry_equiv_pos_as_xyz
 'x,y,z'

loop_
_atom_site_label
_atom_site_type_symbol
_atom_site_fract_x
_atom_site_fract_y
_atom_site_fract_z
C          C       0.70930   0.05190   0.75570
C          C       0.81330   0.05570   0.74190
C          C       0.85040   0.12050   0.74080
H          H       0.80920   0.15880   0.74360
C          C       0.94710   0.13080   0.73570
C          C       0.97980   0.20330   0.74200
C          C       0.00820   0.07470   0.72790
C          C       0.10770   0.08140   0.72060
H          H       0.13490   0.12580   0.71980
C          C       0.16460   0.02680   0.71500
H          H       0.23060   0.03400   0.70970
C          C       0.12980   0.95850   0.71650
C          C       0.18940   0.89960   0.71550
C          C       0.29610   0.90260   0.71280
C          C       0.14920   0.83570   0.71930
H          H       0.19020   0.79720   0.71980
C          C       0.05170   0.82460   0.72240
C          C       0.01860   0.75130   0.73050
C          C       0.99010   0.88220   0.72260
C          C       0.89000   0.87550   0.72380
H          H       0.86220   0.83130   0.72070
C          C       0.83320   0.93030   0.72920
H          H       0.76640   0.92390   0.73050
C          C       0.87140   0.99860   0.73310
C          C       0.96930   0.00720   0.72660
C          C       0.03060   0.94880   0.72170
C          C       0.58960   0.10060   0.89570
C          C       0.63520   0.13230   0.95470
C          C       0.60170   0.11240   0.01340
H          H       0.55770   0.07580   0.01520
C          C       0.63150   0.14520   0.06900
C          C       0.58130   0.12580   0.12820
C          C       0.70240   0.19570   0.06880
C          C       0.73760   0.22950   0.12590
H          H       0.71190   0.21750   0.16540
C          C       0.80610   0.27770   0.12470
H          H       0.82780   0.29910   0.16310
C          C       0.84620   0.29660   0.06590
C          C       0.91420   0.34970   0.06300
C          C       0.94700   0.38860   0.12120
C          C       0.95320   0.36710   0.00570
H          H       0.99740   0.40370   0.00460
C          C       0.92890   0.33230   0.94980
C          C       0.97780   0.35510   0.89090
C          C       0.85800   0.28110   0.94970
C          C       0.82170   0.24790   0.89290
H          H       0.84860   0.25860   0.85350
C          C       0.74960   0.20140   0.89400
H          H       0.72700   0.18130   0.85520
C          C       0.70700   0.18190   0.95230
C          C       0.74290   0.21310   0.00960
C          C       0.81650   0.26380   0.00860
Ni         Ni      0.55200   0.97500   0.82320
Ni         Ni      0.52960   0.13170   0.75780
Ni         Ni      0.02720   0.32270   0.75580
Ni         Ni      0.02430   0.47750   0.81510
O          O       0.68260   0.00660   0.79410
O          O       0.65710   0.09640   0.73050
O          O       0.91810   0.25060   0.73450
O          O       0.06440   0.21820   0.75640
O          O       0.33660   0.95530   0.69480
O          O       0.33860   0.84910   0.72920
O          O       0.07790   0.70420   0.71960
O          O       0.93650   0.73780   0.74750
O          O       0.57420   0.13880   0.84980
O          O       0.56790   0.03860   0.89890
O          O       0.56960   0.06420   0.13960
O          O       0.54990   0.17580   0.16060
O          O       0.99120   0.35520   0.16400
O          O       0.93180   0.45050   0.12140
O          O       0.00200   0.41540   0.88940
O          O       0.99650   0.31110   0.84950
O          O       0.47410   0.03840   0.76380
H          H       0.41730   0.04450   0.77150
O          O       0.95890   0.41150   0.75340
H          H       0.90370   0.40430   0.76430
O          O       0.63100   0.90360   0.87840
H          H       0.68560   0.91480   0.86590
H          H       0.62250   0.92100   0.91480
O          O       0.88820   0.50240   0.85050
H          H       0.87780   0.46320   0.86600
H          H       0.90930   0.52900   0.87980
Ni         Ni      0.94800   0.47500   0.67680
Ni         Ni      0.44800   0.02500   0.17680
Ni         Ni      0.97040   0.63170   0.74220
Ni         Ni      0.02960   0.36830   0.25780
Ni         Ni      0.47280   0.82270   0.74420
Ni         Ni      0.52720   0.17730   0.25580
Ni         Ni      0.47570   0.97750   0.68490
Ni         Ni      0.97570   0.52250   0.18490
O          O       0.16340   0.45530   0.80520
O          O       0.16140   0.34910   0.77080
O          O       0.42210   0.20420   0.78030
O          O       0.56350   0.23780   0.75250
O          O       0.43040   0.93580   0.86040
O          O       0.04990   0.32420   0.66060
O          O       0.49120   0.14480   0.66400
O          O       0.06820   0.54950   0.87860
O          O       0.02590   0.53840   0.73620
O          O       0.54110   0.91150   0.74660
C          C       0.79070   0.55190   0.74430
C          C       0.68670   0.55570   0.75810
C          C       0.64960   0.62050   0.75920
H          H       0.69080   0.65880   0.75640
C          C       0.55290   0.63080   0.76430
C          C       0.52020   0.70330   0.75800
C          C       0.49180   0.57470   0.77210
C          C       0.39230   0.58140   0.77940
H          H       0.36510   0.62580   0.78020
C          C       0.33540   0.52680   0.78500
H          H       0.26940   0.53400   0.79030
C          C       0.37020   0.45850   0.78350
C          C       0.31060   0.39960   0.78450
C          C       0.20390   0.40260   0.78720
C          C       0.35080   0.33570   0.78070
H          H       0.30980   0.29720   0.78020
C          C       0.44830   0.32460   0.77760
C          C       0.48140   0.25130   0.76950
C          C       0.50990   0.38220   0.77740
C          C       0.61000   0.37550   0.77620
H          H       0.63780   0.33130   0.77930
C          C       0.66680   0.43030   0.77080
H          H       0.73360   0.42390   0.76950
C          C       0.62860   0.49860   0.76690
C          C       0.53070   0.50720   0.77340
C          C       0.46940   0.44880   0.77830
C          C       0.91040   0.60060   0.60430
C          C       0.86480   0.63230   0.54530
C          C       0.89830   0.61240   0.48660
H          H       0.94230   0.57580   0.48480
C          C       0.86850   0.64520   0.43100
C          C       0.91870   0.62580   0.37170
C          C       0.79760   0.69570   0.43120
C          C       0.76240   0.72950   0.37410
H          H       0.78810   0.71750   0.33460
C          C       0.69390   0.77770   0.37530
H          H       0.67220   0.79910   0.33690
C          C       0.65380   0.79660   0.43410
C          C       0.58580   0.84970   0.43700
C          C       0.55300   0.88860   0.37880
C          C       0.54680   0.86710   0.49430
H          H       0.50260   0.90370   0.49540
C          C       0.57110   0.83230   0.55020
C          C       0.52220   0.85510   0.60910
C          C       0.64200   0.78110   0.55030
C          C       0.67830   0.74790   0.60710
H          H       0.65140   0.75860   0.64650
C          C       0.75040   0.70140   0.60600
H          H       0.77300   0.68130   0.64480
C          C       0.79300   0.68190   0.54770
C          C       0.75710   0.71310   0.49030
C          C       0.68350   0.76380   0.49140
O          O       0.81740   0.50660   0.70590
O          O       0.84290   0.59640   0.76950
O          O       0.58190   0.75060   0.76550
O          O       0.43560   0.71820   0.74360
O          O       0.92580   0.63880   0.65020
O          O       0.93210   0.53860   0.60110
O          O       0.93040   0.56420   0.36040
O          O       0.50880   0.85520   0.33600
O          O       0.56820   0.95050   0.37860
O          O       0.49800   0.91540   0.61060
O          O       0.50350   0.81110   0.65050
H          H       0.08270   0.54450   0.72850
H          H       0.59630   0.90430   0.73570
O          O       0.86900   0.40360   0.62160
H          H       0.81440   0.41480   0.63410
H          H       0.87750   0.42100   0.58520
O          O       0.61180   0.00240   0.64950
H          H       0.62220   0.96320   0.63400
H          H       0.59070   0.02900   0.62020
Ni         Ni      0.05200   0.52500   0.32320
Ni         Ni      0.47040   0.86830   0.24220
Ni         Ni      0.97280   0.67730   0.24420
Ni         Ni      0.52430   0.02250   0.31500
O          O       0.06960   0.43580   0.63960
O          O       0.45010   0.82420   0.83940
O          O       0.00880   0.64480   0.83600
O          O       0.43180   0.04950   0.62140
C          C       0.29070   0.94810   0.24430
C          C       0.18670   0.94430   0.25810
C          C       0.14960   0.87950   0.25920
H          H       0.19080   0.84120   0.25640
C          C       0.05290   0.86920   0.26430
C          C       0.02020   0.79670   0.25800
C          C       0.99180   0.92530   0.27210
C          C       0.89230   0.91860   0.27940
H          H       0.86510   0.87420   0.28020
C          C       0.83540   0.97320   0.28500
H          H       0.76940   0.96600   0.29030
C          C       0.87020   0.04150   0.28350
C          C       0.81060   0.10040   0.28450
C          C       0.70390   0.09740   0.28720
C          C       0.85080   0.16430   0.28070
H          H       0.80980   0.20280   0.28020
C          C       0.94830   0.17550   0.27760
C          C       0.98140   0.24870   0.26950
C          C       0.00990   0.11780   0.27740
C          C       0.11000   0.12450   0.27620
H          H       0.13780   0.16870   0.27930
C          C       0.16680   0.06970   0.27080
H          H       0.23360   0.07610   0.26950
C          C       0.12860   0.00140   0.26690
C          C       0.03070   0.99280   0.27340
C          C       0.96940   0.05120   0.27830
C          C       0.41040   0.89940   0.10430
C          C       0.36480   0.86770   0.04530
C          C       0.39830   0.88760   0.98660
H          H       0.44230   0.92420   0.98480
C          C       0.36850   0.85480   0.93100
C          C       0.41870   0.87420   0.87170
C          C       0.29760   0.80430   0.93120
C          C       0.26240   0.77050   0.87410
H          H       0.28810   0.78250   0.83460
C          C       0.19390   0.72230   0.87530
H          H       0.17220   0.70090   0.83690
C          C       0.15380   0.70340   0.93410
C          C       0.08580   0.65030   0.93700
C          C       0.05300   0.61140   0.87880
C          C       0.04680   0.63290   0.99430
H          H       0.00260   0.59630   0.99540
C          C       0.07110   0.66770   0.05010
C          C       0.02220   0.64490   0.10910
C          C       0.14200   0.71890   0.05030
C          C       0.17830   0.75210   0.10700
H          H       0.15140   0.74140   0.14650
C          C       0.25040   0.79860   0.10600
H          H       0.27300   0.81870   0.14480
C          C       0.29300   0.81810   0.04780
C          C       0.25710   0.78690   0.99040
C          C       0.18350   0.73620   0.99140
O          O       0.31740   0.99340   0.20590
O          O       0.34290   0.90360   0.26950
O          O       0.08190   0.74940   0.26550
O          O       0.93560   0.78190   0.24360
O          O       0.66340   0.04470   0.30520
O          O       0.66140   0.15090   0.27080
O          O       0.92210   0.29580   0.28040
O          O       0.06350   0.26220   0.25250
O          O       0.42580   0.86120   0.15020
O          O       0.43210   0.96140   0.10110
O          O       0.99800   0.58460   0.11060
O          O       0.00350   0.68890   0.15050
O          O       0.52590   0.96160   0.23620
H          H       0.58270   0.95550   0.22850
O          O       0.04110   0.58850   0.24660
H          H       0.09630   0.59570   0.23570
O          O       0.36900   0.09640   0.12160
H          H       0.31440   0.08520   0.13410
H          H       0.37750   0.07900   0.08520
O          O       0.11180   0.49760   0.14950
H          H       0.12220   0.53680   0.13400
H          H       0.09070   0.47100   0.12020
O          O       0.83660   0.54470   0.19480
O          O       0.83860   0.65090   0.22920
O          O       0.57790   0.79580   0.21970
O          O       0.43650   0.76220   0.24750
O          O       0.95010   0.67580   0.33940
O          O       0.97410   0.46160   0.26380
O          O       0.45890   0.08850   0.25340
C          C       0.20930   0.44810   0.25570
C          C       0.31330   0.44430   0.24190
C          C       0.35040   0.37950   0.24080
H          H       0.30920   0.34120   0.24360
C          C       0.44710   0.36920   0.23570
C          C       0.47980   0.29670   0.24200
C          C       0.50820   0.42530   0.22790
C          C       0.60770   0.41860   0.22060
H          H       0.63490   0.37420   0.21980
C          C       0.66460   0.47320   0.21500
H          H       0.73060   0.46600   0.20970
C          C       0.62980   0.54150   0.21650
C          C       0.68940   0.60040   0.21550
C          C       0.79610   0.59740   0.21280
C          C       0.64920   0.66430   0.21930
H          H       0.69020   0.70280   0.21980
C          C       0.55170   0.67550   0.22240
C          C       0.51860   0.74870   0.23060
C          C       0.49010   0.61780   0.22260
C          C       0.39000   0.62450   0.22380
H          H       0.36220   0.66870   0.22070
C          C       0.33320   0.56970   0.22920
H          H       0.26640   0.57610   0.23050
C          C       0.37140   0.50140   0.23310
C          C       0.46930   0.49280   0.22660
C          C       0.53060   0.55120   0.22170
C          C       0.08960   0.39940   0.39580
C          C       0.13520   0.36770   0.45470
C          C       0.10170   0.38760   0.51340
H          H       0.05770   0.42420   0.51520
C          C       0.13150   0.35480   0.56900
C          C       0.08130   0.37420   0.62830
C          C       0.20240   0.30430   0.56880
C          C       0.23760   0.27050   0.62590
H          H       0.21190   0.28250   0.66540
C          C       0.30610   0.22230   0.62470
H          H       0.32780   0.20090   0.66310
C          C       0.34620   0.20340   0.56590
C          C       0.41420   0.15030   0.56300
C          C       0.44700   0.11140   0.62120
C          C       0.45320   0.13290   0.50570
H          H       0.49740   0.09630   0.50460
C          C       0.42890   0.16770   0.44990
C          C       0.47780   0.14490   0.39090
C          C       0.35800   0.21890   0.44970
C          C       0.32170   0.25210   0.39290
H          H       0.34860   0.24140   0.35350
C          C       0.24960   0.29860   0.39400
H          H       0.22700   0.31870   0.35520
C          C       0.20700   0.31810   0.45230
C          C       0.24290   0.28690   0.50970
C          C       0.31650   0.23620   0.50860
O          O       0.18260   0.49340   0.29410
O          O       0.15710   0.40360   0.23050
O          O       0.41810   0.24940   0.23450
O          O       0.56440   0.28190   0.25640
O          O       0.07420   0.36120   0.34980
O          O       0.06790   0.46140   0.39890
O          O       0.50200   0.08460   0.38940
O          O       0.49650   0.18890   0.34950
H          H       0.91730   0.45550   0.27150
H          H       0.40370   0.09570   0.26430
O          O       0.13100   0.59640   0.37840
H          H       0.18560   0.58520   0.36590
H          H       0.12250   0.57900   0.41480
O          O       0.38820   0.99760   0.35050
H          H       0.37780   0.03680   0.36600
H          H       0.40930   0.97100   0.37980
