data_crystal

_cell_length_a    16.38280
_cell_length_b    20.59200
_cell_length_c    28.55980
_cell_angle_alpha 90.00000
_cell_angle_beta  94.14000
_cell_angle_gamma 90.00000

_symmetry_space_group_name_Hall 'P 1'
_symmetry_space_group_name_H-M  'P 1'

loop_
_symmetry_equiv_pos_as_xyz
 'x,y,z'

loop_
_atom_site_label
_atom_site_type_symbol
_atom_site_fract_x
_atom_site_fract_y
_atom_site_fract_z
Bi         Bi      0.25000   0.61800   0.25000
O          O       0.03300   0.78690   0.70420
N          N       0.25000   0.47610   0.25000
C          C       0.24150   0.42970   0.28780
C          C       0.25850   0.42970   0.21220
O          O       0.21700   0.71310   0.29580
O          O       0.28290   0.71310   0.20420
O          O       0.34140   0.67370   0.30440
O          O       0.15860   0.67370   0.19560
O          O       0.09140   0.82630   0.80440
C          C       0.03630   0.78690   0.81620
C          C       0.19720   0.56700   0.96450
C          C       0.10220   0.65190   0.92690
C          C       0.25150   0.57170   0.92780
C          C       0.12620   0.60540   0.96550
C          C       0.05870   0.74030   0.85520
C          C       0.14100   0.71060   0.92440
C          C       0.04030   0.63860   0.89390
C          C       0.11970   0.75410   0.88770
C          C       0.01810   0.68280   0.85860
C          C       0.33650   0.48450   0.96120
C          C       0.28460   0.47860   0.99910
C          C       0.31820   0.53290   0.92640
C          C       0.46290   0.44420   0.92200
C          C       0.42310   0.40080   0.99770
C          C       0.49090   0.43180   0.84050
C          C       0.40580   0.44390   0.96090
C          C       0.43600   0.43750   0.87520
O          O       0.04010   0.92470   0.67060
O          O       0.14090   0.90610   0.72470
C          C       0.41350   0.98450   0.53880
C          C       0.28630   0.71310   0.31620
C          C       0.46540   0.97860   0.50090
C          C       0.44720   0.93300   0.46450
C          C       0.35220   0.84810   0.42690
C          C       0.28710   0.94420   0.57800
C          C       0.17640   0.93240   0.64730
C          C       0.32690   0.90080   0.50230
C          C       0.11550   0.92100   0.68300
C          C       0.14900   0.94100   0.60070
C          C       0.37610   0.89460   0.46550
C          C       0.30860   0.75970   0.35520
C          C       0.20340   0.94660   0.56620
C          C       0.25910   0.93180   0.65950
C          C       0.34420   0.94390   0.53910
C          C       0.39100   0.78940   0.42440
C          C       0.29030   0.86140   0.39390
C          C       0.31400   0.93750   0.62480
C          C       0.36980   0.74590   0.38770
C          C       0.26810   0.81720   0.35860
C          C       0.21370   0.71310   0.18380
C          C       0.05280   0.93300   0.03550
C          C       0.14790   0.84810   0.07310
C          C       0.12390   0.89460   0.03450
C          C       0.19130   0.75970   0.14480
C          C       0.10900   0.78940   0.07560
C          C       0.20970   0.86140   0.10610
C          C       0.13030   0.74590   0.11230
C          C       0.23190   0.81720   0.14140
Bi         Bi      0.00000   0.88200   0.75000
O          O       0.70990   0.42470   0.82940
O          O       0.60910   0.40610   0.77530
C          C       0.57360   0.43240   0.85270
C          C       0.63450   0.42100   0.81700
C          C       0.60100   0.44100   0.89930
C          C       0.54660   0.44660   0.93380
C          C       0.56820   0.96710   0.42640
C          C       0.50140   0.92830   0.42780
H          H       0.23460   0.45270   0.31650
H          H       0.29000   0.40330   0.29160
H          H       0.19500   0.40250   0.28040
H          H       0.26540   0.45270   0.18350
H          H       0.20990   0.40330   0.20840
H          H       0.30500   0.40250   0.21960
H          H       0.24080   0.60220   0.90420
H          H       0.18200   0.72180   0.94720
H          H       0.01250   0.59930   0.89500
H          H       0.14830   0.79290   0.88590
H          H       0.35280   0.53800   0.90220
H          H       0.46980   0.37520   0.99750
H          H       0.47170   0.42770   0.80920
H          H       0.38010   0.43670   0.86680
H          H       0.49080   0.89780   0.40420
H          H       0.28020   0.87520   0.50250
H          H       0.09300   0.94300   0.59250
H          H       0.18400   0.95200   0.53510
H          H       0.27830   0.92770   0.69080
H          H       0.43200   0.77820   0.44720
H          H       0.26250   0.90070   0.39500
H          H       0.36990   0.93670   0.63320
H          H       0.39830   0.70710   0.38590
H          H       0.22460   0.82690   0.33700
H          H       0.06800   0.77820   0.05280
H          H       0.23750   0.90070   0.10500
H          H       0.10170   0.70710   0.11410
H          H       0.27530   0.82690   0.16300
H          H       0.65690   0.44300   0.90750
H          H       0.56600   0.45200   0.96490
H          H       0.60270   0.96200   0.40220
H          H       0.30050   0.50430   0.25370
O          O       0.20990   0.57530   0.32940
O          O       0.10900   0.59390   0.27530
C          C       0.07360   0.56760   0.35270
C          C       0.13450   0.57900   0.31700
C          C       0.10100   0.55900   0.39930
C          C       0.04660   0.55340   0.43380
N          N       0.25000   0.52390   0.75000
C          C       0.25850   0.57030   0.71220
C          C       0.24150   0.57030   0.78780
H          H       0.15700   0.55700   0.40750
H          H       0.06600   0.54800   0.46490
H          H       0.26540   0.54730   0.68350
H          H       0.20990   0.59670   0.70840
H          H       0.30500   0.59750   0.71960
H          H       0.23460   0.54730   0.81650
H          H       0.29000   0.59670   0.79160
H          H       0.19500   0.59750   0.78040
H          H       0.20040   0.49570   0.74230
N          N       0.00000   0.97610   0.25000
C          C       0.00850   0.92970   0.21220
C          C      -0.00850   0.92970   0.28780
H          H       0.02530   0.67310   0.66300
H          H       0.04010   0.90330   0.29160
H          H       0.01540   0.95270   0.18350
H          H       0.05510   0.90250   0.21960
H          H      -0.01540   0.95270   0.31650
H          H      -0.05500   0.90250   0.28040
H          H      -0.04000   0.90330   0.20840
H          H       0.05050   1.00430   0.25370
O          O       0.29010   0.57530   0.17060
O          O       0.39100   0.59390   0.22470
C          C       0.42640   0.56760   0.14730
C          C       0.36550   0.57900   0.18300
C          C       0.39900   0.55900   0.10070
C          C       0.45330   0.55340   0.06620
C          C       0.06820   0.96710   0.42640
C          C       0.00140   0.92830   0.42780
C          C       0.66350   0.51550   0.03880
C          C       0.71550   0.52140   0.00090
C          C       0.68170   0.46710   0.07360
C          C       0.53710   0.55580   0.07800
C          C       0.57690   0.59920   0.00230
C          C       0.50910   0.56820   0.15950
C          C       0.59410   0.55610   0.03910
C          C       0.56390   0.56250   0.12480
O          O       0.90860   0.17370   0.19550
C          C       0.96370   0.21310   0.18380
C          C       0.80280   0.43300   0.03550
C          C       0.89790   0.34810   0.07310
C          C       0.74860   0.42830   0.07220
C          C       0.87390   0.39460   0.03450
C          C       0.94140   0.25970   0.14480
C          C       0.85900   0.28940   0.07560
C          C       0.95970   0.36140   0.10610
C          C       0.88030   0.24590   0.11230
C          C       0.98200   0.31720   0.14140
H          H       0.34310   0.55700   0.09250
H          H       0.43400   0.54800   0.03510
H          H       0.10270   0.96200   0.40220
H          H       0.64720   0.46200   0.09780
H          H       0.53020   0.62480   0.00250
H          H       0.52830   0.57230   0.19080
H          H       0.61990   0.56330   0.13320
H          H       0.75920   0.39780   0.09580
H          H       0.81810   0.27820   0.05280
H          H       0.98750   0.40070   0.10500
H          H       0.85170   0.20710   0.11410
N          N       1.00000   0.02390   0.75000
C          C       1.00850   0.07030   0.71220
C          C       0.99150   0.07030   0.78780
H          H       0.00920   0.89780   0.09580
H          H       1.01540   0.04730   0.68350
H          H       1.05510   0.09750   0.71960
H          H       1.04010   0.09670   0.79160
H          H       0.96000   0.09670   0.70840
H          H       0.98460   0.04730   0.81650
H          H       0.94500   0.09750   0.78040
H          H       0.95050  -0.00430   0.74230
O          O       0.40860   0.82630   0.69560
C          C       0.33650   0.51550   0.46120
C          C       0.46370   0.78690   0.68380
C          C       0.28460   0.52140   0.49910
C          C       0.30280   0.56700   0.53550
C          C       0.39780   0.65190   0.57310
C          C       0.31820   0.46710   0.42640
C          C       0.46290   0.55580   0.42200
C          C       0.24850   0.57170   0.57220
C          C       0.42310   0.59920   0.49770
C          C       0.37390   0.60540   0.53450
C          C       0.44140   0.74030   0.64480
C          C       0.49090   0.56820   0.34050
C          C       0.40580   0.55610   0.46090
C          C       0.35900   0.71060   0.57560
C          C       0.45970   0.63860   0.60610
C          C       0.43600   0.56250   0.37520
C          C       0.38020   0.75410   0.61230
C          C       0.48190   0.68280   0.64140
O          O       0.09140   0.17370   0.30440
C          C       0.16350   0.48450   0.53880
C          C       0.03630   0.21310   0.31620
C          C       0.21550   0.47860   0.50090
C          C       0.19720   0.43300   0.46450
C          C       0.10210   0.34810   0.42690
C          C       0.18170   0.53290   0.57360
C          C       0.03710   0.44420   0.57800
C          C       0.25150   0.42830   0.42780
C          C       0.07690   0.40080   0.50230
C          C       0.12610   0.39460   0.46550
C          C       0.05870   0.25970   0.35520
C          C       0.00910   0.43180   0.65950
C          C       0.09420   0.44390   0.53910
C          C       0.14100   0.28940   0.42440
C          C       0.04030   0.36140   0.39390
C          C       0.06400   0.43750   0.62480
C          C       0.11980   0.24590   0.38770
C          C       0.01810   0.31720   0.35860
O          O       0.03300   0.21310   0.20420
O          O       0.46710   0.78690   0.79580
O          O       0.04010   0.07530   0.17060
O          O       0.14100   0.09390   0.22470
C          C       0.41350   0.01550   0.03880
C          C       0.46540   0.02140   0.00090
C          C       0.28710   0.05580   0.07800
C          C       0.17640   0.06760   0.14730
C          C       0.32690   0.09920   0.00230
C          C       0.11550   0.07900   0.18300
C          C       0.14900   0.05900   0.10070
C          C       0.20340   0.05340   0.06620
C          C       0.25910   0.06820   0.15950
C          C       0.34420   0.05610   0.03910
C          C       0.31400   0.06250   0.12480
Bi         Bi      0.00000   0.11800   0.25000
C          C       0.00140   0.07170   0.92780
C          C       0.06830   0.03290   0.92640
O          O       0.70990   0.57530   0.32940
O          O       0.60900   0.59390   0.27530
O          O       0.53300   0.78690   0.70420
C          C       0.57360   0.56760   0.35270
C          C       0.63450   0.57900   0.31700
C          C       0.60100   0.55900   0.39930
C          C       0.54660   0.55340   0.43380
O          O       0.59140   0.82630   0.80440
C          C       0.53630   0.78690   0.81620
C          C       0.69720   0.56700   0.96450
C          C       0.60210   0.65190   0.92690
C          C       0.75140   0.57170   0.92780
C          C       0.62610   0.60540   0.96550
C          C       0.55860   0.74030   0.85520
C          C       0.64100   0.71060   0.92440
C          C       0.54030   0.63860   0.89390
C          C       0.61980   0.75410   0.88770
C          C       0.51810   0.68280   0.85860
C          C       0.83650   0.48450   0.96120
C          C       0.78460   0.47860   0.99910
C          C       0.81820   0.53290   0.92640
C          C       0.96290   0.44420   0.92200
C          C       0.92310   0.40080   0.99770
C          C       0.99090   0.43180   0.84050
C          C       0.90590   0.44390   0.96090
C          C       0.93610   0.43750   0.87520
Bi         Bi      0.50000   0.88200   0.75000
H          H       0.35280   0.46200   0.40220
H          H       0.25920   0.60220   0.59580
H          H       0.46980   0.62480   0.49750
H          H       0.47170   0.57230   0.30920
H          H       0.31800   0.72180   0.55280
H          H       0.48750   0.59930   0.60500
H          H       0.38010   0.56330   0.36680
H          H       0.35170   0.79290   0.61410
H          H       0.14720   0.53800   0.59780
H          H       0.24080   0.39780   0.40420
H          H       0.03020   0.37520   0.50250
H          H       0.02830   0.42770   0.69080
H          H       0.18200   0.27820   0.44720
H          H       0.01250   0.40070   0.39500
H          H       0.11990   0.43670   0.63320
H          H       0.14830   0.20710   0.38590
H          H       0.47470   0.67310   0.83700
H          H       0.28020   0.12480   0.00250
H          H       0.09300   0.05700   0.09250
H          H       0.18400   0.04800   0.03510
H          H       0.27830   0.07230   0.19080
H          H       0.36990   0.06330   0.13320
H          H       0.10270   0.03800   0.90220
H          H       0.65700   0.55700   0.40750
H          H       0.56600   0.54800   0.46490
H          H       0.52530   0.67310   0.66300
H          H       0.74080   0.60220   0.90420
H          H       0.68200   0.72180   0.94720
H          H       0.51250   0.59930   0.89500
H          H       0.64830   0.79290   0.88590
H          H       0.85280   0.53800   0.90220
H          H       0.96980   0.37520   0.99750
H          H       0.97170   0.42770   0.80920
H          H       0.88010   0.43670   0.86680
N          N       0.75000   0.47610   0.25000
C          C       0.74150   0.42970   0.28780
C          C       0.75850   0.42970   0.21220
H          H       0.02540   0.32690   0.16300
H          H       0.73460   0.45270   0.31650
H          H       0.79000   0.40330   0.29160
H          H       0.69490   0.40250   0.28040
H          H       0.76540   0.45270   0.18350
H          H       0.70990   0.40330   0.20840
H          H       0.80510   0.40250   0.21960
H          H       0.80050   0.50430   0.25370
O          O       0.45990   0.92470   0.82940
O          O       0.35900   0.90610   0.77530
C          C       0.08640   0.98450   0.96120
C          C       0.03450   0.97860   0.99910
C          C       0.21290   0.94420   0.92200
C          C       0.32360   0.93240   0.85270
C          C       0.17310   0.90080   0.99770
C          C       0.38450   0.92100   0.81700
C          C       0.35100   0.94100   0.89930
C          C       0.29670   0.94660   0.93380
C          C       0.24090   0.93180   0.84050
C          C       0.15580   0.94390   0.96090
C          C       0.18600   0.93750   0.87520
N          N       0.75000   0.52390   0.75000
C          C       0.75850   0.57030   0.71220
C          C       0.74150   0.57030   0.78780
H          H       0.21980   0.87520   0.99750
H          H       0.40690   0.94300   0.90750
H          H       0.31600   0.95200   0.96490
H          H       0.22170   0.92770   0.80920
H          H       0.13010   0.93670   0.86680
H          H       0.76540   0.54730   0.68350
H          H       0.70990   0.59670   0.70840
H          H       0.80510   0.59750   0.71960
H          H       0.73460   0.54730   0.81650
H          H       0.79000   0.59670   0.79160
H          H       0.69490   0.59750   0.78040
H          H       0.70040   0.49570   0.74230
O          O       0.29010   0.42470   0.67060
O          O       0.39100   0.40610   0.72470
O          O       0.46710   0.21310   0.29580
C          C       0.42640   0.43240   0.64730
C          C       0.36550   0.42100   0.68300
C          C       0.39900   0.44100   0.60070
C          C       0.45330   0.44660   0.56620
C          C       0.16360   0.51550   0.03880
C          C       0.21550   0.52140   0.00090
C          C       0.18170   0.46710   0.07360
C          C       0.03710   0.55580   0.07800
C          C       0.07690   0.59920   0.00230
C          C       0.00910   0.56820   0.15950
C          C       0.09410   0.55610   0.03910
C          C       0.06400   0.56250   0.12480
O          O       0.40860   0.17370   0.19550
C          C       0.46370   0.21310   0.18380
C          C       0.30280   0.43300   0.03550
C          C       0.39790   0.34810   0.07310
C          C       0.24850   0.42830   0.07220
C          C       0.37390   0.39460   0.03450
C          C       0.44140   0.25970   0.14480
C          C       0.35900   0.28940   0.07560
C          C       0.45970   0.36140   0.10610
C          C       0.38030   0.24590   0.11230
C          C       0.48200   0.31720   0.14140
O          O       0.90860   0.82630   0.69560
C          C       0.83650   0.51550   0.46120
C          C       0.96370   0.78690   0.68380
C          C       0.78460   0.52140   0.49910
C          C       0.80280   0.56700   0.53550
C          C       0.89790   0.65190   0.57310
C          C       0.81820   0.46710   0.42640
C          C       0.96290   0.55580   0.42200
C          C       0.74860   0.57170   0.57220
C          C       0.92310   0.59920   0.49770
C          C       0.87390   0.60540   0.53450
C          C       0.94140   0.74030   0.64480
C          C       0.99090   0.56820   0.34050
C          C       0.90590   0.55610   0.46090
C          C       0.85900   0.71060   0.57560
C          C       0.95970   0.63860   0.60610
C          C       0.93610   0.56250   0.37520
C          C       0.88020   0.75410   0.61230
C          C       0.98190   0.68280   0.64140
O          O       0.59140   0.17370   0.30440
C          C       0.66350   0.48450   0.53880
C          C       0.53630   0.21310   0.31620
C          C       0.71550   0.47860   0.50090
C          C       0.69720   0.43300   0.46450
C          C       0.60220   0.34810   0.42690
C          C       0.68170   0.53290   0.57360
C          C       0.53710   0.44420   0.57800
C          C       0.75140   0.42830   0.42780
C          C       0.57690   0.40080   0.50230
C          C       0.62620   0.39460   0.46550
C          C       0.55870   0.25970   0.35520
C          C       0.50910   0.43180   0.65950
C          C       0.59410   0.44390   0.53910
C          C       0.64100   0.28940   0.42440
C          C       0.54030   0.36140   0.39390
C          C       0.56390   0.43750   0.62480
C          C       0.61980   0.24590   0.38770
C          C       0.51810   0.31720   0.35860
O          O       0.53300   0.21310   0.20420
Bi         Bi      0.50000   0.11800   0.25000
N          N       0.50000   0.97610   0.25000
C          C       0.50850   0.92970   0.21220
C          C       0.49150   0.92970   0.28780
H          H       0.34310   0.44300   0.59250
H          H       0.43400   0.45200   0.53510
H          H       0.47470   0.32690   0.33700
H          H       0.14720   0.46200   0.09780
H          H       0.03020   0.62480   0.00250
H          H       0.02840   0.57230   0.19080
H          H       0.11980   0.56330   0.13320
H          H       0.25920   0.39780   0.09580
H          H       0.31810   0.27820   0.05280
H          H       0.48750   0.40070   0.10500
H          H       0.35170   0.20710   0.11410
H          H       0.85280   0.46200   0.40220
H          H       0.75920   0.60220   0.59580
H          H       0.96980   0.62480   0.49750
H          H       0.97170   0.57230   0.30920
H          H       0.81800   0.72180   0.55280
H          H       0.98750   0.59930   0.60500
H          H       0.88010   0.56330   0.36680
H          H       0.85170   0.79290   0.61410
H          H       0.64720   0.53800   0.59780
H          H       0.74080   0.39780   0.40420
H          H       0.53020   0.37520   0.50250
H          H       0.52830   0.42770   0.69080
H          H       0.68200   0.27820   0.44720
H          H       0.51250   0.40070   0.39500
H          H       0.61990   0.43670   0.63320
H          H       0.64830   0.20710   0.38590
H          H       0.52540   0.32690   0.16300
H          H       0.54010   0.90330   0.29160
H          H       0.51540   0.95270   0.18350
H          H       0.55510   0.90250   0.21960
H          H       0.48460   0.95270   0.31650
H          H       0.44500   0.90250   0.28040
H          H       0.46000   0.90330   0.20840
H          H       0.55050   1.00430   0.25370
Bi         Bi      0.25000   0.38200   0.75000
O          O       0.45990   0.07530   0.32940
O          O       0.35910   0.09390   0.27530
O          O       0.28290   0.28690   0.70420
O          O       0.15860   0.32630   0.69560
C          C       0.08640   0.01550   0.46120
C          C       0.21370   0.28690   0.68380
C          C       0.03460   0.02140   0.49910
C          C       0.05280   0.06700   0.53550
C          C       0.14790   0.15190   0.57310
C          C       0.21290   0.05580   0.42200
C          C       0.32360   0.06760   0.35270
C          C       0.17310   0.09920   0.49770
C          C       0.38450   0.07900   0.31700
C          C       0.35100   0.05900   0.39930
C          C       0.12390   0.10540   0.53450
C          C       0.19130   0.24030   0.64480
C          C       0.29660   0.05340   0.43380
C          C       0.24090   0.06820   0.34050
C          C       0.15580   0.05610   0.46090
C          C       0.10900   0.21060   0.57560
C          C       0.20970   0.13860   0.60610
C          C       0.18600   0.06250   0.37520
C          C       0.13020   0.25410   0.61230
C          C       0.23190   0.18280   0.64140
O          O       0.21700   0.28690   0.79580
O          O       0.34140   0.32630   0.80440
C          C       0.28630   0.28690   0.81620
C          C       0.44720   0.06700   0.96450
C          C       0.35220   0.15190   0.92690
C          C       0.37610   0.10540   0.96550
C          C       0.30860   0.24030   0.85520
C          C       0.39100   0.21060   0.92440
C          C       0.29030   0.13860   0.89390
C          C       0.36980   0.25410   0.88770
C          C       0.26810   0.18280   0.85860
C          C       0.93180   0.96710   0.07360
C          C       0.99860   0.92830   0.07220
C          C       0.50140   0.07170   0.92780
C          C       0.56830   0.03290   0.92640
H          H       0.21980   0.12480   0.49750
H          H       0.40690   0.05700   0.40750
H          H       0.31600   0.04800   0.46490
H          H       0.22170   0.07230   0.30920
H          H       0.06800   0.22180   0.55280
H          H       0.23750   0.09930   0.60500
H          H       0.13010   0.06330   0.36680
H          H       0.10170   0.29290   0.61410
H          H       0.27530   0.17310   0.66300
H          H       0.49080   0.10220   0.90420
H          H       0.43200   0.22180   0.94720
H          H       0.26250   0.09930   0.89500
H          H       0.39830   0.29290   0.88590
H          H       0.22470   0.17310   0.83700
H          H       0.89720   0.96200   0.09780
H          H       0.60280   0.03800   0.90220
O          O       0.20990   0.42470   0.82940
O          O       0.10910   0.40610   0.77530
C          C       0.07360   0.43240   0.85270
C          C       0.13450   0.42100   0.81700
C          C       0.10100   0.44100   0.89930
C          C       0.04670   0.44660   0.93380
C          C       0.99860   0.07170   0.57220
C          C       0.93180   0.03290   0.57360
H          H       0.15690   0.44300   0.90750
H          H       0.06600   0.45200   0.96490
H          H       0.89720   0.03800   0.59780
N          N       0.50000   0.02390   0.75000
C          C       0.50850   0.07030   0.71220
C          C       0.49150   0.07030   0.78780
H          H       0.00920   0.10220   0.59580
H          H       0.51540   0.04730   0.68350
H          H       0.55510   0.09750   0.71960
H          H       0.54010   0.09670   0.79160
H          H       0.46000   0.09670   0.70840
H          H       0.48460   0.04730   0.81650
H          H       0.44500   0.09750   0.78040
H          H       0.45040  -0.00430   0.74230
C          C       0.43180   0.96710   0.07360
C          C       0.49850   0.92830   0.07220
Bi         Bi      0.75000   0.61800   0.25000
O          O       0.71700   0.71310   0.29580
O          O       0.78300   0.71310   0.20420
O          O       0.84140   0.67370   0.30440
O          O       0.65860   0.67370   0.19560
O          O       0.54010   0.92470   0.67060
O          O       0.64100   0.90610   0.72470
C          C       0.91350   0.98450   0.53880
C          C       0.78630   0.71310   0.31620
C          C       0.96540   0.97860   0.50090
C          C       0.94720   0.93300   0.46450
C          C       0.85210   0.84810   0.42690
C          C       0.78710   0.94420   0.57800
C          C       0.67640   0.93240   0.64730
C          C       0.82690   0.90080   0.50230
C          C       0.61550   0.92100   0.68300
C          C       0.64900   0.94100   0.60070
C          C       0.87610   0.89460   0.46550
C          C       0.80860   0.75970   0.35520
C          C       0.70340   0.94660   0.56620
C          C       0.75910   0.93180   0.65950
C          C       0.84410   0.94390   0.53910
C          C       0.89100   0.78940   0.42440
C          C       0.79030   0.86140   0.39390
C          C       0.81390   0.93750   0.62480
C          C       0.86980   0.74590   0.38770
C          C       0.76810   0.81720   0.35860
C          C       0.71370   0.71310   0.18380
C          C       0.55280   0.93300   0.03550
C          C       0.64790   0.84810   0.07310
C          C       0.62390   0.89460   0.03450
C          C       0.69140   0.75970   0.14480
C          C       0.60900   0.78940   0.07560
C          C       0.70970   0.86140   0.10610
C          C       0.63020   0.74590   0.11230
C          C       0.73190   0.81720   0.14140
H          H       0.39720   0.96200   0.09780
H          H       0.78020   0.87520   0.50250
H          H       0.59300   0.94300   0.59250
H          H       0.68400   0.95200   0.53510
H          H       0.77830   0.92770   0.69080
H          H       0.93200   0.77820   0.44720
H          H       0.76250   0.90070   0.39500
H          H       0.86990   0.93670   0.63320
H          H       0.89830   0.70710   0.38590
H          H       0.72470   0.82690   0.33700
H          H       0.50920   0.89780   0.09580
H          H       0.56800   0.77820   0.05280
H          H       0.73750   0.90070   0.10500
H          H       0.60170   0.70710   0.11410
H          H       0.77530   0.82690   0.16300
C          C       0.49850   0.07170   0.57220
C          C       0.43180   0.03290   0.57360
Bi         Bi      0.75000   0.38200   0.75000
O          O       0.95990   0.07530   0.32940
O          O       0.85910   0.09390   0.27530
O          O       0.78290   0.28690   0.70420
O          O       0.65860   0.32630   0.69560
C          C       0.58640   0.01550   0.46120
C          C       0.71370   0.28690   0.68380
C          C       0.53460   0.02140   0.49910
C          C       0.55280   0.06700   0.53550
C          C       0.64790   0.15190   0.57310
C          C       0.71290   0.05580   0.42200
C          C       0.82360   0.06760   0.35270
C          C       0.67310   0.09920   0.49770
C          C       0.88450   0.07900   0.31700
C          C       0.85100   0.05900   0.39930
C          C       0.62390   0.10540   0.53450
C          C       0.69130   0.24030   0.64480
C          C       0.79660   0.05340   0.43380
C          C       0.74090   0.06820   0.34050
C          C       0.65580   0.05610   0.46090
C          C       0.60900   0.21060   0.57560
C          C       0.70970   0.13860   0.60610
C          C       0.68600   0.06250   0.37520
C          C       0.63020   0.25410   0.61230
C          C       0.73190   0.18280   0.64140
O          O       0.71700   0.28690   0.79580
O          O       0.84140   0.32630   0.80440
C          C       0.78630   0.28690   0.81620
C          C       0.94720   0.06700   0.96450
C          C       0.85210   0.15190   0.92690
C          C       0.87610   0.10540   0.96550
C          C       0.80860   0.24030   0.85520
C          C       0.89100   0.21060   0.92440
C          C       0.79030   0.13860   0.89390
C          C       0.86980   0.25410   0.88770
C          C       0.76810   0.18280   0.85860
H          H       0.39720   0.03800   0.59780
H          H       0.50920   0.10220   0.59580
H          H       0.71980   0.12480   0.49750
H          H       0.90690   0.05700   0.40750
H          H       0.81600   0.04800   0.46490
H          H       0.72170   0.07230   0.30920
H          H       0.56800   0.22180   0.55280
H          H       0.73750   0.09930   0.60500
H          H       0.63010   0.06330   0.36680
H          H       0.60170   0.29290   0.61410
H          H       0.77530   0.17310   0.66300
H          H       0.93200   0.22180   0.94720
H          H       0.76250   0.09930   0.89500
H          H       0.89830   0.29290   0.88590
H          H       0.72470   0.17310   0.83700
O          O       0.79010   0.57530   0.17060
O          O       0.89100   0.59390   0.22470
C          C       0.92640   0.56760   0.14730
C          C       0.86550   0.57900   0.18300
C          C       0.89900   0.55900   0.10070
C          C       0.95330   0.55340   0.06620
H          H       0.84310   0.55700   0.09250
H          H       0.93400   0.54800   0.03510
H          H       0.99080   0.89780   0.40420
O          O       0.96700   0.78690   0.79580
H          H       0.97470   0.67310   0.83700
O          O       0.54010   0.07530   0.17060
O          O       0.64100   0.09390   0.22470
C          C       0.91350   0.01550   0.03880
C          C       0.96540   0.02140   0.00090
C          C       0.78710   0.05580   0.07800
C          C       0.67640   0.06760   0.14730
C          C       0.82690   0.09920   0.00230
C          C       0.61550   0.07900   0.18300
C          C       0.64900   0.05900   0.10070
C          C       0.70340   0.05340   0.06620
C          C       0.75910   0.06820   0.15950
C          C       0.84410   0.05610   0.03910
C          C       0.81390   0.06250   0.12480
H          H       0.78020   0.12480   0.00250
H          H       0.59300   0.05700   0.09250
H          H       0.68400   0.04800   0.03510
H          H       0.77830   0.07230   0.19080
H          H       0.86990   0.06330   0.13320
O          O       0.95990   0.92470   0.82940
O          O       0.85900   0.90610   0.77530
C          C       0.58650   0.98450   0.96120
C          C       0.53450   0.97860   0.99910
C          C       0.71290   0.94420   0.92200
C          C       0.82360   0.93240   0.85270
C          C       0.67310   0.90080   0.99770
C          C       0.88450   0.92100   0.81700
C          C       0.85100   0.94100   0.89930
C          C       0.79670   0.94660   0.93380
C          C       0.74090   0.93180   0.84050
C          C       0.65590   0.94390   0.96090
C          C       0.68610   0.93750   0.87520
H          H       0.71980   0.87520   0.99750
H          H       0.90690   0.94300   0.90750
H          H       0.81600   0.95200   0.96490
H          H       0.72170   0.92770   0.80920
H          H       0.63010   0.93670   0.86680
O          O       0.79010   0.42470   0.67060
O          O       0.89100   0.40610   0.72470
C          C       0.92640   0.43240   0.64730
C          C       0.86550   0.42100   0.68300
C          C       0.89900   0.44100   0.60070
C          C       0.95330   0.44660   0.56620
H          H       0.84310   0.44300   0.59250
H          H       0.93400   0.45200   0.53510
O          O       0.96700   0.21310   0.29580
H          H       0.97470   0.32690   0.33700
H          H       0.99080   0.10220   0.90420
