data_crystal

_cell_length_a    24.29290
_cell_length_b    24.29290
_cell_length_c    24.29290
_cell_angle_alpha 90.00000
_cell_angle_beta  90.00000
_cell_angle_gamma 90.00000

_symmetry_space_group_name_Hall 'P 1'
_symmetry_space_group_name_H-M  'P 1'

loop_
_symmetry_equiv_pos_as_xyz
 'x,y,z'

loop_
_atom_site_label
_atom_site_type_symbol
_atom_site_fract_x
_atom_site_fract_y
_atom_site_fract_z
H          H       0.90550   0.07810   0.95480
H          H       0.07810   0.93020   0.91780
H          H       0.05750   0.09870   0.06980
H          H       0.91370   0.91780   0.06570
C          C       0.97920   0.22180   0.15130
H          H       0.97620   0.22680   0.10710
H          H       0.75700   0.01570   0.11410
C          C       0.22180   0.84870   0.97920
C          C       0.65000   0.36740   0.97780
H          H       0.65290   0.99440   0.59130
C          C       0.97780   0.65000   0.36740
Zr         Zr      0.10160   0.00000   0.00000
O          O       0.05750   0.05750   0.05750
O          O       0.14540   0.07970   0.00000
C          C       0.12860   0.12860   0.00000
C          C       0.17180   0.17170   0.00000
C          C       0.16510   0.23030   0.00000
C          C       0.20840   0.26540   0.98720
C          C       0.25840   0.24350   0.96890
C          C       0.26510   0.18640   0.96490
C          C       0.22180   0.15130   0.97920
H          H       0.12640   0.24710   0.01570
H          H       0.20340   0.30950   0.99030
H          H       0.30380   0.16960   0.95080
H          H       0.22680   0.10710   0.97620
C          C       0.31040   0.27710   0.96310
C          C       0.30650   0.33030   0.98470
C          C       0.35000   0.36740   0.97780
C          C       0.39740   0.35130   0.94930
C          C       0.40130   0.29810   0.92780
C          C       0.35780   0.26090   0.93470
H          H       0.26980   0.34260   0.00670
H          H       0.34710   0.40870   0.99440
H          H       0.43800   0.28570   0.90580
H          H       0.36070   0.21970   0.91800
C          C       0.44950   0.38560   0.95520
C          C       0.44500   0.44500   0.94950
C          C       0.39540   0.47020   0.93230
C          C       0.50000   0.35780   0.95890
C          C       0.50000   0.47170   0.95100
H          H       0.36020   0.45530   0.91840
H          H       0.50000   0.31470   0.96530
C          C       0.25840   0.96890   0.24350
C          C       0.26510   0.96490   0.18640
C          C       0.22180   0.97920   0.15130
H          H       0.12640   0.01570   0.24710
H          H       0.20340   0.99030   0.30950
H          H       0.30380   0.95080   0.16960
H          H       0.22680   0.97620   0.10710
C          C       0.31040   0.96310   0.27710
C          C       0.30650   0.98470   0.33030
C          C       0.35000   0.97780   0.36740
C          C       0.39740   0.94930   0.35130
C          C       0.40130   0.92780   0.29810
C          C       0.35780   0.93470   0.26090
H          H       0.34710   0.99440   0.40870
H          H       0.43800   0.90580   0.28570
H          H       0.36070   0.91800   0.21970
C          C       0.44950   0.95520   0.38560
C          C       0.44500   0.94950   0.44500
C          C       0.39540   0.93230   0.47020
C          C       0.50000   0.95890   0.35780
C          C       0.50000   0.95100   0.47170
H          H       0.36020   0.91840   0.45530
H          H       0.50000   0.96530   0.31470
Zr         Zr      0.00000   0.00000   0.10160
O          O       0.94250   0.94250   0.05750
O          O       0.00000   0.92030   0.14540
C          C       0.00000   0.87140   0.12860
C          C       0.00000   0.82830   0.17180
Zr         Zr      0.89840   0.00000   0.00000
C          C       0.00000   0.87140   0.87140
C          C       0.00000   0.82830   0.82820
C          C       0.94950   0.55500   0.55500
Zr         Zr      0.00000   0.00000   0.89840
O          O       0.05750   0.05750   0.94250
O          O       0.07970   0.00000   0.85460
C          C       0.12860   0.00000   0.87140
C          C       0.17170   0.00000   0.82820
C          C       0.44500   0.94950   0.55500
O          O       0.94250   0.05750   0.05750
O          O       0.92030   0.00000   0.14540
C          C       0.87140   0.00000   0.12860
C          C       0.82830   0.00000   0.17180
C          C       0.77390   0.00000   0.15280
C          C       0.55500   0.94950   0.44500
O          O       0.05750   0.94250   0.05750
O          O       0.07970   0.00000   0.14540
C          C       0.12860   0.00000   0.12860
C          C       0.17170   0.00000   0.17180
O          O       0.94250   0.05750   0.94250
O          O       0.85460   0.00000   0.92030
C          C       0.87140   0.00000   0.87140
C          C       0.82820   0.00000   0.82830
C          C       0.83490   0.00000   0.76980
C          C       0.79160   0.98720   0.73460
C          C       0.74160   0.96890   0.75650
C          C       0.73490   0.96490   0.81360
C          C       0.77820   0.97920   0.84870
H          H       0.87360   0.01570   0.75290
H          H       0.79660   0.99030   0.69050
H          H       0.69620   0.95080   0.83040
H          H       0.77320   0.97620   0.89290
C          C       0.68960   0.96310   0.72290
C          C       0.69350   0.98470   0.66970
C          C       0.65000   0.97780   0.63260
C          C       0.60260   0.94930   0.64870
C          C       0.59870   0.92780   0.70190
C          C       0.64220   0.93470   0.73910
H          H       0.56200   0.90580   0.71430
H          H       0.63930   0.91800   0.78030
C          C       0.55050   0.95520   0.61440
C          C       0.55500   0.94950   0.55500
C          C       0.60460   0.93230   0.52980
C          C       0.50000   0.95890   0.64220
C          C       0.50000   0.95100   0.52830
H          H       0.63980   0.91840   0.54470
H          H       0.50000   0.96530   0.68530
O          O       0.94250   0.94250   0.94250
O          O       0.85460   0.92030   0.00000
C          C       0.87140   0.87140   0.00000
C          C       0.82820   0.82830   0.00000
C          C       0.83490   0.76980   0.00000
H          H       0.73020   0.65740   0.99330
Zr         Zr      0.00000   0.89840   0.00000
O          O       0.05750   0.94250   0.94250
O          O       0.07970   0.85460   0.00000
C          C       0.12860   0.87140   0.00000
C          C       0.17170   0.82820   0.00000
O          O       0.85460   0.07970   0.00000
C          C       0.87140   0.12860   0.00000
C          C       0.82820   0.17170   0.00000
C          C       0.83490   0.23030   0.00000
C          C       0.79160   0.26540   0.98720
C          C       0.74160   0.24350   0.96890
C          C       0.73490   0.18640   0.96490
C          C       0.77820   0.15130   0.97920
H          H       0.87360   0.24710   0.01570
H          H       0.79660   0.30950   0.99030
H          H       0.69620   0.16960   0.95080
H          H       0.77320   0.10710   0.97620
C          C       0.68960   0.27710   0.96310
C          C       0.69350   0.33030   0.98470
C          C       0.60260   0.35130   0.94930
C          C       0.59870   0.29810   0.92780
C          C       0.64220   0.26090   0.93470
H          H       0.73020   0.34260   0.00670
H          H       0.65290   0.40870   0.99440
H          H       0.56200   0.28570   0.90580
H          H       0.63930   0.21970   0.91800
C          C       0.55050   0.38560   0.95520
C          C       0.55500   0.44500   0.94950
C          C       0.60460   0.47020   0.93230
H          H       0.63980   0.45530   0.91840
O          O       0.00000   0.85460   0.92030
C          C       0.00000   0.83490   0.76980
H          H       0.99330   0.73020   0.65740
Zr         Zr      0.00000   0.10160   0.00000
O          O       0.07970   0.14540   0.00000
O          O       0.92030   0.85460   0.00000
C          C       0.55500   0.55500   0.94950
O          O       0.00000   0.07970   0.85460
C          C       0.00000   0.12860   0.87140
C          C       0.00000   0.17170   0.82820
O          O       0.14540   0.00000   0.92030
C          C       0.16510   0.00000   0.76980
H          H       0.26980   0.99330   0.65740
O          O       0.00000   0.85460   0.07970
C          C       0.00000   0.83490   0.23030
C          C       0.98720   0.79160   0.26540
C          C       0.96890   0.74160   0.24350
C          C       0.96490   0.73490   0.18640
C          C       0.97920   0.77820   0.15130
H          H       0.99030   0.79660   0.30950
H          H       0.95080   0.69620   0.16960
H          H       0.97620   0.77320   0.10710
C          C       0.96310   0.68960   0.27710
C          C       0.98470   0.69350   0.33030
C          C       0.94930   0.60260   0.35130
C          C       0.92780   0.59870   0.29810
C          C       0.93470   0.64220   0.26090
H          H       0.99440   0.65290   0.40870
H          H       0.90580   0.56200   0.28570
H          H       0.91800   0.63930   0.21970
C          C       0.95520   0.55050   0.38560
C          C       0.94950   0.55500   0.44500
C          C       0.93230   0.60460   0.47020
C          C       0.95890   0.50000   0.35780
C          C       0.95100   0.50000   0.47170
H          H       0.91840   0.63980   0.45530
H          H       0.96530   0.50000   0.31470
O          O       0.00000   0.14540   0.07970
C          C       0.00000   0.12860   0.12860
C          C       0.00000   0.17180   0.17170
C          C       0.00000   0.16510   0.23030
H          H       0.99330   0.26980   0.34260
O          O       0.92030   0.00000   0.85460
O          O       0.92030   0.14540   0.00000
O          O       0.14540   0.92030   0.00000
C          C       0.16510   0.76980   0.00000
C          C       0.20840   0.73460   0.98720
C          C       0.25840   0.75650   0.96890
C          C       0.26510   0.81360   0.96490
H          H       0.12640   0.75290   0.01570
H          H       0.30380   0.83040   0.95080
H          H       0.22680   0.89290   0.97620
C          C       0.31040   0.72290   0.96310
C          C       0.30650   0.66970   0.98470
C          C       0.35000   0.63260   0.97780
C          C       0.39740   0.64870   0.94930
C          C       0.40130   0.70190   0.92780
C          C       0.35780   0.73910   0.93470
H          H       0.34710   0.59130   0.99440
H          H       0.43800   0.71430   0.90580
H          H       0.36070   0.78030   0.91800
C          C       0.44950   0.61440   0.95520
C          C       0.44500   0.55500   0.94950
C          C       0.39540   0.52980   0.93230
C          C       0.50000   0.64220   0.95890
C          C       0.50000   0.52830   0.95100
H          H       0.36020   0.54470   0.91840
H          H       0.50000   0.68530   0.96530
O          O       0.00000   0.14540   0.92030
C          C       0.00000   0.16510   0.76980
C          C       0.98720   0.20840   0.73460
C          C       0.96890   0.25840   0.75650
C          C       0.96490   0.26510   0.81360
C          C       0.97920   0.22180   0.84870
H          H       0.01570   0.12640   0.75290
H          H       0.99030   0.20340   0.69050
H          H       0.95080   0.30380   0.83040
H          H       0.97620   0.22680   0.89290
C          C       0.96310   0.31040   0.72290
C          C       0.98470   0.30650   0.66970
C          C       0.97780   0.35000   0.63260
C          C       0.94930   0.39740   0.64870
C          C       0.92780   0.40130   0.70190
C          C       0.93470   0.35780   0.73910
H          H       0.99440   0.34710   0.59130
H          H       0.90580   0.43800   0.71430
H          H       0.91800   0.36070   0.78030
C          C       0.95520   0.44950   0.61440
C          C       0.94950   0.44500   0.55500
C          C       0.93230   0.39540   0.52980
C          C       0.95890   0.50000   0.64220
C          C       0.95100   0.50000   0.52830
H          H       0.91840   0.36020   0.54470
H          H       0.96530   0.50000   0.68530
O          O       0.00000   0.07970   0.14540
C          C       0.94950   0.44500   0.44500
O          O       0.14540   0.00000   0.07970
C          C       0.16510   0.00000   0.23030
C          C       0.20840   0.98720   0.26540
O          O       0.85460   0.00000   0.07970
C          C       0.83490   0.00000   0.23030
H          H       0.73020   0.99330   0.34260
O          O       0.00000   0.92030   0.85460
H          H       0.20340   0.69050   0.00970
H          H       0.26980   0.65740   0.99330
C          C       0.98720   0.20840   0.26540
C          C       0.96890   0.25840   0.24350
C          C       0.96490   0.26510   0.18640
H          H       0.01570   0.12640   0.24710
H          H       0.99030   0.20340   0.30950
H          H       0.95080   0.30380   0.16960
C          C       0.96310   0.31040   0.27710
C          C       0.98470   0.30650   0.33030
C          C       0.97780   0.35000   0.36740
C          C       0.94930   0.39740   0.35130
C          C       0.92780   0.40130   0.29810
C          C       0.93470   0.35780   0.26090
H          H       0.99440   0.34710   0.40870
H          H       0.90580   0.43800   0.28570
H          H       0.91800   0.36070   0.21970
C          C       0.95520   0.44950   0.38560
C          C       0.93230   0.39540   0.47020
H          H       0.91840   0.36020   0.45530
C          C       0.79160   0.73460   0.98720
C          C       0.74160   0.75650   0.96890
C          C       0.73490   0.81360   0.96490
C          C       0.77820   0.84870   0.97920
H          H       0.87360   0.75290   0.01570
H          H       0.79660   0.69050   0.99030
H          H       0.69620   0.83040   0.95080
H          H       0.77320   0.89290   0.97620
C          C       0.68960   0.72290   0.96310
C          C       0.69350   0.66970   0.98470
C          C       0.65000   0.63260   0.97780
C          C       0.60260   0.64870   0.94930
C          C       0.59870   0.70190   0.92780
C          C       0.64220   0.73910   0.93470
H          H       0.65290   0.59130   0.99440
H          H       0.56200   0.71430   0.90580
H          H       0.63930   0.78030   0.91800
C          C       0.55050   0.61440   0.95520
C          C       0.60460   0.52980   0.93230
H          H       0.63980   0.54470   0.91840
C          C       0.79160   0.98720   0.26540
C          C       0.74160   0.96890   0.24350
C          C       0.73490   0.96490   0.18640
H          H       0.87360   0.01570   0.24710
H          H       0.79660   0.99030   0.30950
H          H       0.69620   0.95080   0.16960
C          C       0.68960   0.96310   0.27710
C          C       0.69350   0.98470   0.33030
C          C       0.65000   0.97780   0.36740
C          C       0.60260   0.94930   0.35130
C          C       0.59870   0.92780   0.29810
C          C       0.64220   0.93470   0.26090
H          H       0.65290   0.99440   0.40870
H          H       0.56200   0.90580   0.28570
H          H       0.63930   0.91800   0.21970
C          C       0.55050   0.95520   0.38560
C          C       0.60460   0.93230   0.47020
H          H       0.63980   0.91840   0.45530
H          H       0.99330   0.26980   0.65740
C          C       0.98720   0.79160   0.73460
C          C       0.96890   0.74160   0.75650
C          C       0.96490   0.73490   0.81360
C          C       0.97920   0.77820   0.84870
H          H       0.01570   0.87360   0.75290
H          H       0.99030   0.79660   0.69050
H          H       0.95080   0.69620   0.83040
H          H       0.97620   0.77320   0.89290
C          C       0.96310   0.68960   0.72290
C          C       0.98470   0.69350   0.66970
C          C       0.97780   0.65000   0.63260
C          C       0.94930   0.60260   0.64870
C          C       0.92780   0.59870   0.70190
C          C       0.93470   0.64220   0.73910
H          H       0.99440   0.65290   0.59130
H          H       0.90580   0.56200   0.71430
H          H       0.91800   0.63930   0.78030
C          C       0.95520   0.55050   0.61440
C          C       0.93230   0.60460   0.52980
H          H       0.91840   0.63980   0.54470
H          H       0.98430   0.87360   0.24710
H          H       0.99330   0.73020   0.34260
H          H       0.73020   0.99330   0.65740
C          C       0.20840   0.98720   0.73460
C          C       0.25840   0.96890   0.75650
C          C       0.26510   0.96490   0.81360
C          C       0.22180   0.97920   0.84870
H          H       0.12640   0.01570   0.75290
H          H       0.20340   0.99030   0.69050
H          H       0.30380   0.95080   0.83040
H          H       0.22680   0.97620   0.89290
C          C       0.31040   0.96310   0.72290
C          C       0.30650   0.98470   0.66970
C          C       0.35000   0.97780   0.63260
C          C       0.39740   0.94930   0.64870
C          C       0.40130   0.92780   0.70190
C          C       0.35780   0.93470   0.73910
H          H       0.34710   0.99440   0.59130
H          H       0.43800   0.90580   0.71430
H          H       0.36070   0.91800   0.78030
C          C       0.44950   0.95520   0.61440
C          C       0.39540   0.93230   0.52980
H          H       0.36020   0.91840   0.54470
H          H       0.26980   0.99330   0.34260
