data_crystal

_cell_length_a    27.85390
_cell_length_b    11.65380
_cell_length_c    33.52360
_cell_angle_alpha 90.00000
_cell_angle_beta  99.15000
_cell_angle_gamma 90.00000

_symmetry_space_group_name_Hall 'P 1'
_symmetry_space_group_name_H-M  'P 1'

loop_
_symmetry_equiv_pos_as_xyz
 'x,y,z'

loop_
_atom_site_label
_atom_site_type_symbol
_atom_site_fract_x
_atom_site_fract_y
_atom_site_fract_z
C          C       0.81500   0.24060   0.35660
C          C       0.86800   0.24750   0.35730
C          C       0.89030   0.18810   0.32860
H          H       0.87190   0.14070   0.30980
C          C       0.93930   0.20010   0.32850
C          C       0.96690   0.27020   0.35620
H          H       0.00010   0.27730   0.35570
C          C       0.94620   0.33040   0.38480
C          C       0.89670   0.31920   0.38430
H          H       0.88210   0.36110   0.40270
C          C       0.96340   0.13170   0.29850
C          C       0.97510   0.41080   0.41250
C          C       0.00250   0.49440   0.39670
H          H       0.00320   0.49330   0.36900
C          C       0.02850   0.57800   0.41930
C          C       0.02760   0.58560   0.46090
C          C       0.00070   0.49750   0.47860
C          C       0.97520   0.40910   0.45490
C          C       0.95230   0.32140   0.47400
H          H       0.93770   0.26060   0.45880
C          C       0.04880   0.67560   0.48530
H          H       0.06390   0.73500   0.47350
C          C       0.05700   0.65980   0.39850
C          C       0.03550   0.71950   0.36540
H          H       0.00210   0.71260   0.35710
C          C       0.06210   0.79000   0.34390
C          C       0.11200   0.79730   0.35560
H          H       0.13030   0.84270   0.34080
C          C       0.13510   0.73840   0.38900
C          C       0.10700   0.67070   0.41060
H          H       0.12180   0.63210   0.43360
C          C       0.03820   0.85830   0.30880
C          C       0.18880   0.74590   0.40110
In         In      1.00000   0.99480   0.25000
O          O       0.78880   0.18190   0.33160
O          O       0.79940   0.29630   0.38520
H          H       0.76840   0.30750   0.38400
O          O       0.93520   0.07420   0.27220
O          O       0.00770   0.13010   0.30050
O          O       0.99270   0.85840   0.29910
O          O       0.06470   0.91420   0.28830
O          O       0.21070   0.80950   0.37970
O          O       0.20840   0.68910   0.43030
H          H       0.23840   0.67570   0.43780
C          C       0.18500   0.75940   0.64340
C          C       0.13200   0.75250   0.64270
C          C       0.10970   0.81190   0.67140
H          H       0.12810   0.85930   0.69020
C          C       0.06070   0.79990   0.67150
C          C       0.03310   0.72980   0.64380
H          H       0.99990   0.72270   0.64430
C          C       0.05380   0.66960   0.61520
C          C       0.10330   0.68080   0.61570
H          H       0.11790   0.63890   0.59730
C          C       0.03660   0.86830   0.70150
C          C       0.02490   0.58920   0.58750
C          C       0.99750   0.50560   0.60330
H          H       0.99680   0.50670   0.63100
C          C       0.97150   0.42200   0.58070
C          C       0.97240   0.41440   0.53910
C          C       0.99930   0.50250   0.52140
C          C       0.02480   0.59090   0.54510
C          C       0.04770   0.67860   0.52600
H          H       0.06230   0.73940   0.54120
C          C       0.95120   0.32440   0.51470
H          H       0.93610   0.26500   0.52650
C          C       0.94300   0.34020   0.60150
C          C       0.96450   0.28050   0.63460
H          H       0.99790   0.28740   0.64290
C          C       0.93790   0.21000   0.65610
C          C       0.88800   0.20270   0.64440
H          H       0.86970   0.15730   0.65920
C          C       0.86490   0.26160   0.61100
C          C       0.89300   0.32930   0.58940
H          H       0.87820   0.36790   0.56640
C          C       0.96180   0.14170   0.69130
C          C       0.81120   0.25410   0.59890
O          O       0.21120   0.81810   0.66840
O          O       0.20060   0.70370   0.61480
H          H       0.23160   0.69250   0.61600
O          O       0.06480   0.92580   0.72780
O          O       0.99230   0.86990   0.69950
O          O       0.00730   0.14160   0.70100
O          O       0.93530   0.08580   0.71170
O          O       0.78930   0.19050   0.62030
O          O       0.79160   0.31090   0.56970
H          H       0.76160   0.32430   0.56220
In         In      1.00000   0.00520   0.75000
O          O       0.06480   0.07420   0.22780
O          O       0.99230   0.13010   0.19950
O          O       0.00730   0.85840   0.20090
O          O       0.93530   0.91420   0.21170
C          C       0.18500   0.24060   0.14340
C          C       0.13200   0.24750   0.14270
C          C       0.10970   0.18810   0.17140
H          H       0.12810   0.14070   0.19020
C          C       0.06070   0.20010   0.17150
C          C       0.03310   0.27020   0.14380
H          H       0.99990   0.27730   0.14430
C          C       0.46690   0.77020   0.35620
H          H       0.50010   0.77730   0.35570
C          C       0.44620   0.83040   0.38480
C          C       0.39670   0.81920   0.38430
H          H       0.38210   0.86110   0.40270
C          C       0.46340   0.63170   0.29850
C          C       0.47510   0.91080   0.41250
C          C       0.50250   0.99440   0.39670
H          H       0.50320   0.99330   0.36900
C          C       0.52850   0.07800   0.41930
C          C       0.52760   0.08560   0.46090
C          C       0.50070   0.99750   0.47860
C          C       0.47520   0.90910   0.45490
C          C       0.45230   0.82140   0.47400
H          H       0.43770   0.76060   0.45880
C          C       0.54880   0.17560   0.48530
H          H       0.56390   0.23500   0.47350
C          C       0.55700   0.15980   0.39850
C          C       0.53550   0.21950   0.36540
H          H       0.50210   0.21260   0.35710
C          C       0.56210   0.29000   0.34390
C          C       0.61200   0.29730   0.35560
H          H       0.63030   0.34270   0.34080
C          C       0.63510   0.23840   0.38900
C          C       0.60700   0.17070   0.41060
H          H       0.62180   0.13210   0.43360
C          C       0.53820   0.35830   0.30880
C          C       0.68880   0.24590   0.40110
In         In      0.50000   0.49480   0.25000
O          O       0.28880   0.68190   0.33160
O          O       0.29940   0.79630   0.38520
H          H       0.26840   0.80750   0.38400
O          O       0.43520   0.57420   0.27220
O          O       0.50770   0.63010   0.30050
O          O       0.49270   0.35840   0.29910
O          O       0.56470   0.41420   0.28830
O          O       0.71070   0.30950   0.37970
O          O       0.70840   0.18910   0.43030
H          H       0.73840   0.17570   0.43780
C          C       0.68500   0.25940   0.64340
C          C       0.63200   0.25250   0.64270
C          C       0.60970   0.31190   0.67140
H          H       0.62810   0.35930   0.69020
C          C       0.56070   0.29990   0.67150
C          C       0.53310   0.22980   0.64380
H          H       0.49990   0.22270   0.64430
C          C       0.55380   0.16960   0.61520
C          C       0.60330   0.18080   0.61570
H          H       0.61790   0.13890   0.59730
C          C       0.53660   0.36830   0.70150
C          C       0.52490   0.08920   0.58750
C          C       0.49750   0.00560   0.60330
H          H       0.49680   0.00670   0.63100
C          C       0.47150   0.92200   0.58070
C          C       0.47240   0.91440   0.53910
C          C       0.49930   0.00250   0.52140
C          C       0.52480   0.09090   0.54510
C          C       0.54770   0.17860   0.52600
H          H       0.56230   0.23940   0.54120
C          C       0.45120   0.82440   0.51470
H          H       0.43610   0.76500   0.52650
C          C       0.44300   0.84020   0.60150
C          C       0.46450   0.78050   0.63460
H          H       0.49790   0.78740   0.64290
C          C       0.43790   0.71000   0.65610
C          C       0.38800   0.70270   0.64440
H          H       0.36970   0.65730   0.65920
C          C       0.36490   0.76160   0.61100
C          C       0.39300   0.82930   0.58940
H          H       0.37820   0.86790   0.56640
C          C       0.46180   0.64170   0.69130
C          C       0.31120   0.75410   0.59890
O          O       0.71120   0.31810   0.66840
O          O       0.70060   0.20370   0.61480
H          H       0.73160   0.19250   0.61600
O          O       0.56480   0.42580   0.72780
O          O       0.49230   0.36990   0.69950
O          O       0.50730   0.64160   0.70100
O          O       0.43530   0.58580   0.71170
O          O       0.28930   0.69050   0.62030
O          O       0.29160   0.81090   0.56970
H          H       0.26160   0.82430   0.56220
In         In      0.50000   0.50520   0.75000
O          O       0.56480   0.57420   0.22780
O          O       0.49230   0.63010   0.19950
O          O       0.50730   0.35840   0.20090
O          O       0.43530   0.41420   0.21170
C          C       0.68500   0.74060   0.14340
C          C       0.63200   0.74750   0.14270
C          C       0.60970   0.68810   0.17140
H          H       0.62810   0.64070   0.19020
C          C       0.56070   0.70010   0.17150
C          C       0.53310   0.77020   0.14380
H          H       0.49990   0.77730   0.14430
C          C       0.55380   0.83040   0.11520
C          C       0.60330   0.81920   0.11570
H          H       0.61790   0.86110   0.09730
C          C       0.53660   0.63170   0.20150
C          C       0.52490   0.91080   0.08750
C          C       0.49750   0.99440   0.10330
H          H       0.49680   0.99330   0.13100
C          C       0.47150   0.07800   0.08070
C          C       0.47240   0.08560   0.03910
C          C       0.49930   0.99750   0.02140
C          C       0.52480   0.90910   0.04510
C          C       0.54770   0.82140   0.02600
H          H       0.56230   0.76060   0.04120
C          C       0.45120   0.17560   0.01470
H          H       0.43610   0.23500   0.02650
C          C       0.44300   0.15980   0.10150
C          C       0.46450   0.21950   0.13460
H          H       0.36970   0.34270   0.15920
C          C       0.36490   0.23840   0.11100
C          C       0.39300   0.17070   0.08940
H          H       0.37820   0.13210   0.06640
C          C       0.46180   0.35830   0.19120
C          C       0.31120   0.24590   0.09890
O          O       0.71120   0.68190   0.16840
O          O       0.70060   0.79630   0.11480
H          H       0.73160   0.80750   0.11600
O          O       0.28930   0.30950   0.12030
O          O       0.29160   0.18910   0.06970
H          H       0.26160   0.17570   0.06220
C          C       0.31500   0.25940   0.85660
C          C       0.36800   0.25250   0.85730
C          C       0.39030   0.31190   0.82860
H          H       0.37190   0.35930   0.80980
C          C       0.43930   0.29990   0.82850
C          C       0.46690   0.22980   0.85620
H          H       0.50010   0.22270   0.85570
C          C       0.44620   0.16960   0.88480
C          C       0.39670   0.18080   0.88430
H          H       0.38210   0.13890   0.90270
C          C       0.46340   0.36830   0.79850
C          C       0.47510   0.08920   0.91250
C          C       0.50250   0.00560   0.89670
H          H       0.50320   0.00670   0.86900
C          C       0.52850   0.92200   0.91930
C          C       0.52760   0.91440   0.96090
C          C       0.50070   0.00250   0.97860
C          C       0.47520   0.09090   0.95490
C          C       0.45230   0.17860   0.97400
H          H       0.43770   0.23940   0.95880
C          C       0.54880   0.82440   0.98530
H          H       0.56390   0.76500   0.97350
C          C       0.55700   0.84020   0.89850
C          C       0.53550   0.78050   0.86540
H          H       0.50210   0.78740   0.85710
C          C       0.56210   0.71000   0.84390
C          C       0.61200   0.70270   0.85560
H          H       0.63030   0.65730   0.84080
C          C       0.63510   0.76160   0.88900
C          C       0.60700   0.82930   0.91070
H          H       0.62180   0.86790   0.93360
C          C       0.53820   0.64170   0.80880
C          C       0.68880   0.75410   0.90110
O          O       0.28880   0.31810   0.83160
O          O       0.29940   0.20370   0.88520
H          H       0.26840   0.19250   0.88400
O          O       0.43520   0.42580   0.77220
O          O       0.50770   0.36990   0.80050
O          O       0.49270   0.64160   0.79910
O          O       0.56470   0.58580   0.78830
O          O       0.71070   0.69050   0.87970
O          O       0.70840   0.81090   0.93030
H          H       0.73840   0.82430   0.93780
O          O       0.93520   0.92580   0.77220
O          O       0.00770   0.86990   0.80050
O          O       0.99270   0.14160   0.79910
O          O       0.06470   0.08580   0.78830
C          C       0.81500   0.75940   0.85660
C          C       0.86800   0.75250   0.85730
C          C       0.89030   0.81190   0.82860
H          H       0.87190   0.85930   0.80980
C          C       0.93930   0.79990   0.82850
C          C       0.96690   0.72980   0.85620
H          H       0.00010   0.72270   0.85570
C          C       0.94620   0.66960   0.88480
C          C       0.89670   0.68080   0.88430
H          H       0.88210   0.63890   0.90270
C          C       0.96340   0.86830   0.79850
C          C       0.97510   0.58920   0.91250
C          C       0.00250   0.50560   0.89670
H          H       0.00320   0.50670   0.86900
C          C       0.02850   0.42200   0.91930
C          C       0.02760   0.41440   0.96090
C          C       0.00070   0.50250   0.97860
C          C       0.97520   0.59090   0.95490
C          C       0.95230   0.67860   0.97400
H          H       0.93770   0.73940   0.95880
C          C       0.04880   0.32440   0.98530
H          H       0.06390   0.26500   0.97350
C          C       0.05700   0.34020   0.89850
C          C       0.03550   0.28050   0.86540
H          H       0.00210   0.28740   0.85710
C          C       0.06210   0.21000   0.84390
C          C       0.11200   0.20270   0.85560
H          H       0.13030   0.15730   0.84080
C          C       0.13510   0.26160   0.88900
C          C       0.10700   0.32930   0.91070
H          H       0.12180   0.36790   0.93360
C          C       0.03820   0.14170   0.80880
C          C       0.18880   0.25410   0.90110
O          O       0.78880   0.81810   0.83160
O          O       0.79940   0.70370   0.88520
H          H       0.76840   0.69250   0.88400
O          O       0.21070   0.19050   0.87970
O          O       0.20840   0.31090   0.93030
H          H       0.23840   0.32430   0.93780
C          C       0.05380   0.33040   0.11520
C          C       0.10330   0.31920   0.11570
H          H       0.11790   0.36110   0.09730
C          C       0.03660   0.13170   0.20150
C          C       0.02490   0.41080   0.08750
C          C       0.99750   0.49440   0.10330
H          H       0.99680   0.49330   0.13100
C          C       0.97150   0.57800   0.08070
C          C       0.97240   0.58560   0.03910
C          C       0.99930   0.49750   0.02140
C          C       0.02480   0.40910   0.04510
C          C       0.04770   0.32140   0.02600
H          H       0.06230   0.26060   0.04120
C          C       0.95120   0.67560   0.01470
H          H       0.93610   0.73500   0.02650
C          C       0.94300   0.65980   0.10150
C          C       0.96450   0.71950   0.13460
H          H       0.99790   0.71260   0.14290
C          C       0.93790   0.79000   0.15610
C          C       0.88800   0.79730   0.14440
H          H       0.86970   0.84270   0.15920
C          C       0.86490   0.73840   0.11100
C          C       0.89300   0.67070   0.08940
H          H       0.87820   0.63210   0.06640
C          C       0.96180   0.85830   0.19120
C          C       0.81120   0.74590   0.09890
O          O       0.21120   0.18190   0.16840
O          O       0.20060   0.29630   0.11480
H          H       0.23160   0.30750   0.11600
O          O       0.78930   0.80950   0.12030
O          O       0.79160   0.68910   0.06970
H          H       0.76160   0.67570   0.06220
C          C       0.31500   0.74060   0.35660
C          C       0.36800   0.74750   0.35730
C          C       0.39030   0.68810   0.32860
H          H       0.37190   0.64070   0.30980
C          C       0.43930   0.70010   0.32850
H          H       0.49790   0.21260   0.14290
C          C       0.43790   0.29000   0.15610
C          C       0.38800   0.29730   0.14440
