data_crystal

_cell_length_a    13.77180
_cell_length_b    20.06240
_cell_length_c    16.64530
_cell_angle_alpha 90.00000
_cell_angle_beta  90.00000
_cell_angle_gamma 90.00000

_symmetry_space_group_name_Hall 'P 1'
_symmetry_space_group_name_H-M  'P 1'

loop_
_symmetry_equiv_pos_as_xyz
 'x,y,z'

loop_
_atom_site_label
_atom_site_type_symbol
_atom_site_fract_x
_atom_site_fract_y
_atom_site_fract_z
O          O       0.41980   0.64710   0.39140
O          O       0.30550   0.72060   0.41150
C          C       0.34120   0.67420   0.37040
C          C       0.29400   0.65590   0.29350
C          C       0.20310   0.61460   0.14830
C          C       0.15670   0.59040   0.07350
C          C       0.19610   0.61150   0.00000
H          H       0.25050   0.64060   0.00000
C          C       0.07670   0.54470   0.07540
C          C       0.03960   0.52170   0.14800
H          H       0.06800   0.53540   0.19730
C          C       0.03820   0.52320   0.00000
Ca         Ca      0.20260   0.77410   0.50000
O          O       0.11200   0.66450   0.50000
Ca         Ca      0.45260   0.72590   0.50000
Ca         Ca      0.04740   0.27410   0.50000
O          O       0.16980   0.85290   0.60860
O          O       0.16980   0.85290   0.39140
O          O       0.05550   0.77940   0.58850
O          O       0.30550   0.72060   0.58850
O          O       0.05550   0.77940   0.41150
O          O       0.36200   0.83550   0.50000
O          O       0.41980   0.64710   0.60860
C          C       0.34120   0.67420   0.62960
C          C       0.29400   0.65590   0.70650
C          C       0.20310   0.61460   0.85170
C          C       0.15670   0.59040   0.92650
C          C       0.07670   0.54470   0.92460
C          C       0.03960   0.52170   0.85200
H          H       0.06800   0.53540   0.80270
C          C       0.30700   0.59300   0.74150
H          H       0.35010   0.56150   0.71840
C          C       0.25800   0.57820   0.80680
H          H       0.26360   0.53320   0.82380
C          C       0.23000   0.69810   0.74240
H          H       0.21500   0.73940   0.71730
C          C       0.18500   0.68160   0.81640
H          H       0.14440   0.71280   0.84300
Ca         Ca      0.29740   0.22590   0.50000
O          O       0.08020   0.35290   0.39140
O          O       0.19450   0.27940   0.41150
O          O       0.38800   0.33550   0.50000
C          C       0.15880   0.32580   0.37040
C          C       0.20600   0.34410   0.29350
C          C       0.29690   0.38540   0.14830
C          C       0.34330   0.40960   0.07350
C          C       0.30390   0.38850   0.00000
H          H       0.24950   0.35940   0.00000
C          C       0.42330   0.45530   0.07540
C          C       0.46040   0.47830   0.14800
H          H       0.43200   0.46460   0.19730
C          C       0.46170   0.47680   0.00000
C          C       0.19300   0.40700   0.25850
H          H       0.14990   0.43850   0.28160
C          C       0.24200   0.42180   0.19320
H          H       0.23640   0.46680   0.17620
C          C       0.27000   0.30190   0.25760
H          H       0.28500   0.26060   0.28270
C          C       0.31500   0.31840   0.18360
H          H       0.35550   0.28720   0.15700
O          O       0.33020   0.14710   0.60860
O          O       0.33020   0.14710   0.39140
O          O       0.44450   0.22060   0.58850
O          O       0.19450   0.27940   0.58850
O          O       0.44450   0.22060   0.41150
O          O       0.13800   0.16450   0.50000
O          O       0.08020   0.35290   0.60860
C          C       0.15880   0.32580   0.62960
C          C       0.20600   0.34410   0.70650
C          C       0.29690   0.38540   0.85170
C          C       0.34330   0.40960   0.92650
C          C       0.42330   0.45530   0.92460
C          C       0.46040   0.47830   0.85200
H          H       0.43200   0.46460   0.80270
C          C       0.19300   0.40700   0.74150
H          H       0.14990   0.43850   0.71840
C          C       0.24200   0.42180   0.80680
H          H       0.23640   0.46680   0.82380
C          C       0.27000   0.30190   0.74240
H          H       0.28500   0.26060   0.71730
C          C       0.31500   0.31840   0.81640
H          H       0.35550   0.28720   0.84300
H          H       0.00040   0.85940   0.00000
C          C       0.09120   0.82580   0.37040
C          C       0.04400   0.84410   0.29350
C          C       0.09120   0.82580   0.62960
C          C       0.04400   0.84410   0.70650
C          C       0.05700   0.90700   0.74150
H          H       0.10010   0.93850   0.71840
C          C       0.00800   0.92180   0.80680
H          H       0.01360   0.96680   0.82380
C          C       0.05390   0.11150   0.00000
C          C       0.21170   0.02320   0.00000
C          C       0.04680   0.11460   0.14830
C          C       0.09330   0.09040   0.07350
C          C       0.17330   0.04470   0.07540
C          C       0.21040   0.02170   0.14800
H          H       0.18200   0.03540   0.19730
C          C       0.04680   0.11460   0.85170
C          C       0.09330   0.09040   0.92650
C          C       0.17330   0.04470   0.92460
C          C       0.21040   0.02170   0.85200
H          H       0.18200   0.03540   0.80270
C          C       0.44600   0.88850   0.00000
C          C       0.28820   0.97680   0.00000
C          C       0.45310   0.88540   0.14830
C          C       0.40670   0.90960   0.07350
C          C       0.32670   0.95530   0.07540
C          C       0.28960   0.97830   0.14800
H          H       0.31800   0.96460   0.19730
C          C       0.45310   0.88540   0.85170
C          C       0.40670   0.90960   0.92650
C          C       0.32670   0.95530   0.92460
C          C       0.28960   0.97830   0.85200
H          H       0.31800   0.96460   0.80270
C          C       0.48000   0.80190   0.74240
H          H       0.46500   0.76060   0.71730
C          C       0.43500   0.81840   0.81640
H          H       0.39440   0.78720   0.84300
H          H       0.49950   0.14060   0.00000
C          C       0.40870   0.17420   0.37040
C          C       0.45600   0.15590   0.29350
C          C       0.40870   0.17420   0.62960
C          C       0.45600   0.15590   0.70650
C          C       0.34710   0.62280   0.23190
H          H       0.41440   0.61440   0.23880
C          C       0.30080   0.60290   0.16180
H          H       0.33740   0.58040   0.12180
C          C       0.19690   0.66820   0.27860
H          H       0.16020   0.69310   0.31650
C          C       0.15230   0.64530   0.20970
H          H       0.08410   0.65070   0.20430
C          C       0.05310   0.16820   0.72140
H          H       0.08980   0.19310   0.68350
C          C       0.09770   0.14530   0.79030
H          H       0.16590   0.15070   0.79570
C          C       0.40290   0.12280   0.76810
H          H       0.33560   0.11440   0.76120
C          C       0.44920   0.10290   0.83820
H          H       0.41260   0.08040   0.87820
C          C       0.05310   0.16820   0.27860
H          H       0.08980   0.19310   0.31650
C          C       0.09770   0.14530   0.20970
H          H       0.16590   0.15070   0.20430
C          C       0.40290   0.12280   0.23190
H          H       0.33560   0.11440   0.23880
C          C       0.44920   0.10290   0.16180
H          H       0.41260   0.08040   0.12180
C          C       0.09700   0.87720   0.23190
H          H       0.16440   0.88560   0.23880
C          C       0.05070   0.89710   0.16180
H          H       0.08740   0.91960   0.12180
C          C       0.44690   0.83180   0.27860
H          H       0.41020   0.80690   0.31650
C          C       0.40230   0.85470   0.20970
H          H       0.33410   0.84930   0.20430
H          H       0.16690   0.62830   0.47230
H          H       0.06420   0.63420   0.53830
H          H       0.40960   0.86570   0.53860
H          H       0.32160   0.86820   0.46380
H          H       0.43450   0.36720   0.53780
H          H       0.35020   0.37250   0.46050
H          H       0.19150   0.13450   0.47360
H          H       0.09220   0.13330   0.53900
O          O       0.91980   0.64710   0.39140
O          O       0.80550   0.72060   0.41150
C          C       0.84130   0.67420   0.37040
C          C       0.79400   0.65590   0.29350
C          C       0.70310   0.61460   0.14830
C          C       0.65670   0.59040   0.07350
C          C       0.69610   0.61150   0.00000
H          H       0.75050   0.64060   0.00000
C          C       0.57670   0.54470   0.07540
C          C       0.53960   0.52170   0.14800
H          H       0.56800   0.53540   0.19730
C          C       0.53830   0.52320   0.00000
Ca         Ca      0.70260   0.77410   0.50000
O          O       0.61200   0.66450   0.50000
Ca         Ca      0.95260   0.72590   0.50000
Ca         Ca      0.54740   0.27410   0.50000
O          O       0.66980   0.85290   0.60860
O          O       0.66980   0.85290   0.39140
O          O       0.55550   0.77940   0.58850
O          O       0.80550   0.72060   0.58850
O          O       0.55550   0.77940   0.41150
O          O       0.86200   0.83550   0.50000
O          O       0.91980   0.64710   0.60860
C          C       0.84130   0.67420   0.62960
C          C       0.79400   0.65590   0.70650
C          C       0.70310   0.61460   0.85170
C          C       0.65670   0.59040   0.92650
C          C       0.57670   0.54470   0.92460
C          C       0.53960   0.52170   0.85200
H          H       0.56800   0.53540   0.80270
C          C       0.80700   0.59300   0.74150
H          H       0.85010   0.56150   0.71840
C          C       0.75800   0.57820   0.80680
H          H       0.76360   0.53320   0.82380
C          C       0.73000   0.69810   0.74240
H          H       0.71500   0.73940   0.71730
C          C       0.68500   0.68160   0.81640
H          H       0.64440   0.71280   0.84300
Ca         Ca      0.79740   0.22590   0.50000
O          O       0.58020   0.35290   0.39140
O          O       0.69450   0.27940   0.41150
O          O       0.88800   0.33550   0.50000
C          C       0.65870   0.32580   0.37040
C          C       0.70600   0.34410   0.29350
C          C       0.79690   0.38540   0.14830
C          C       0.84330   0.40960   0.07350
C          C       0.80390   0.38850   0.00000
H          H       0.74950   0.35940   0.00000
C          C       0.92330   0.45530   0.07540
C          C       0.96040   0.47830   0.14800
H          H       0.93200   0.46460   0.19730
C          C       0.96170   0.47680   0.00000
C          C       0.69300   0.40700   0.25850
H          H       0.64990   0.43850   0.28160
C          C       0.74200   0.42180   0.19320
H          H       0.73640   0.46680   0.17620
C          C       0.77000   0.30190   0.25760
H          H       0.78500   0.26060   0.28270
C          C       0.81500   0.31840   0.18360
H          H       0.85560   0.28720   0.15700
O          O       0.83020   0.14710   0.60860
O          O       0.83020   0.14710   0.39140
O          O       0.94450   0.22060   0.58850
O          O       0.69450   0.27940   0.58850
O          O       0.94450   0.22060   0.41150
O          O       0.63800   0.16450   0.50000
O          O       0.58020   0.35290   0.60860
C          C       0.65870   0.32580   0.62960
C          C       0.70600   0.34410   0.70650
C          C       0.79690   0.38540   0.85170
C          C       0.84330   0.40960   0.92650
C          C       0.92330   0.45530   0.92460
C          C       0.96040   0.47830   0.85200
H          H       0.93200   0.46460   0.80270
C          C       0.69300   0.40700   0.74150
H          H       0.64990   0.43850   0.71840
C          C       0.74200   0.42180   0.80680
H          H       0.73640   0.46680   0.82380
C          C       0.77000   0.30190   0.74240
H          H       0.78500   0.26060   0.71730
C          C       0.81500   0.31840   0.81640
H          H       0.85560   0.28720   0.84300
H          H       0.50040   0.85940   0.00000
C          C       0.59120   0.82580   0.37040
C          C       0.54400   0.84410   0.29350
C          C       0.59120   0.82580   0.62960
C          C       0.54400   0.84410   0.70650
C          C       0.55700   0.90700   0.74150
H          H       0.60010   0.93850   0.71840
C          C       0.50800   0.92180   0.80680
H          H       0.51360   0.96680   0.82380
C          C       0.55390   0.11150   0.00000
C          C       0.71170   0.02320   0.00000
C          C       0.54680   0.11460   0.14830
C          C       0.59330   0.09040   0.07350
C          C       0.67330   0.04470   0.07540
C          C       0.71040   0.02170   0.14800
H          H       0.68200   0.03540   0.19730
C          C       0.54680   0.11460   0.85170
C          C       0.59330   0.09040   0.92650
C          C       0.67330   0.04470   0.92460
C          C       0.71040   0.02170   0.85200
H          H       0.68200   0.03540   0.80270
C          C       0.94600   0.88850   0.00000
C          C       0.78820   0.97680   0.00000
C          C       0.95310   0.88540   0.14830
C          C       0.90670   0.90960   0.07350
C          C       0.82670   0.95530   0.07540
C          C       0.78960   0.97830   0.14800
H          H       0.81800   0.96460   0.19730
C          C       0.95310   0.88540   0.85170
C          C       0.90670   0.90960   0.92650
C          C       0.82670   0.95530   0.92460
C          C       0.78960   0.97830   0.85200
H          H       0.81800   0.96460   0.80270
C          C       0.98000   0.80190   0.74240
H          H       0.96500   0.76060   0.71730
C          C       0.93500   0.81840   0.81640
H          H       0.89440   0.78720   0.84300
H          H       0.99950   0.14060   0.00000
C          C       0.90870   0.17420   0.37040
C          C       0.95600   0.15590   0.29350
C          C       0.90870   0.17420   0.62960
C          C       0.95600   0.15590   0.70650
C          C       0.84710   0.62280   0.23190
H          H       0.91440   0.61440   0.23880
C          C       0.80080   0.60290   0.16180
H          H       0.83740   0.58040   0.12180
C          C       0.69690   0.66820   0.27860
H          H       0.66020   0.69310   0.31650
C          C       0.65230   0.64530   0.20970
H          H       0.58410   0.65070   0.20430
C          C       0.55310   0.16820   0.72140
H          H       0.58980   0.19310   0.68350
C          C       0.59770   0.14530   0.79030
H          H       0.66590   0.15070   0.79570
C          C       0.90290   0.12280   0.76810
H          H       0.83560   0.11440   0.76120
C          C       0.94920   0.10290   0.83820
H          H       0.91260   0.08040   0.87820
C          C       0.55310   0.16820   0.27860
H          H       0.58980   0.19310   0.31650
C          C       0.59770   0.14530   0.20970
H          H       0.66590   0.15070   0.20430
C          C       0.90290   0.12280   0.23190
H          H       0.83560   0.11440   0.23880
C          C       0.94920   0.10290   0.16180
H          H       0.91260   0.08040   0.12180
C          C       0.59700   0.87720   0.23190
H          H       0.66440   0.88560   0.23880
C          C       0.55070   0.89710   0.16180
H          H       0.58740   0.91960   0.12180
C          C       0.94690   0.83180   0.27860
H          H       0.91020   0.80690   0.31650
C          C       0.90230   0.85470   0.20970
H          H       0.83410   0.84930   0.20430
H          H       0.66690   0.62830   0.47230
H          H       0.56420   0.63420   0.53830
H          H       0.90960   0.86570   0.53860
H          H       0.82160   0.86820   0.46380
H          H       0.93450   0.36720   0.53780
H          H       0.85010   0.37250   0.46050
H          H       0.69150   0.13450   0.47360
H          H       0.59220   0.13330   0.53900
