data_crystal

_cell_length_a    17.05300
_cell_length_b    11.36300
_cell_length_c    18.51800
_cell_angle_alpha 90.00000
_cell_angle_beta  116.23000
_cell_angle_gamma 90.00000

_symmetry_space_group_name_Hall 'P 1'
_symmetry_space_group_name_H-M  'P 1'

loop_
_symmetry_equiv_pos_as_xyz
 'x,y,z'

loop_
_atom_site_label
_atom_site_type_symbol
_atom_site_fract_x
_atom_site_fract_y
_atom_site_fract_z
C          C       0.13990   0.62370   0.56400
C          C       0.22730   0.68610   0.60130
C          C       0.28810   0.65880   0.67790
H          H       0.27550   0.60280   0.70780
C          C       0.36980   0.71610   0.71090
H          H       0.41080   0.69950   0.76320
C          C       0.38840   0.79640   0.66540
H          H       0.44270   0.83310   0.68770
C          C       0.32860   0.82510   0.58680
C          C       0.24660   0.77190   0.55580
H          H       0.20420   0.79280   0.50490
C          C       0.24350   0.17610   0.40880
C          C       0.22680   0.20580   0.33020
H          H       0.25800   0.16900   0.30630
C          C       0.16370   0.29040   0.28710
H          H       0.15420   0.31010   0.23510
C          C       0.11590   0.34440   0.32090
H          H       0.07430   0.40100   0.29220
C          C       0.13040   0.31310   0.39980
C          C       0.19300   0.22970   0.44270
H          H       0.20180   0.20910   0.49430
C          C       0.07970   0.37390   0.43810
C          C       0.42790   0.19170   0.43120
H          H       0.39140   0.25620   0.40970
C          C       0.39820   0.09410   0.46090
C          C       0.31180   0.08810   0.45570
C          C       0.29240   0.00000   0.49620
H          H       0.23730   0.99980   0.49510
C          C       0.35120   0.91050   0.53890
C          C       0.43270   0.90760   0.53560
C          C       0.45670   0.00040   0.49890
C          C       0.49040   0.80810   0.56600
H          H       0.47180   0.74230   0.58410
C          C       0.12270   0.21660   0.81520
H          H       0.16910   0.17210   0.85590
H          H       0.09670   0.17130   0.76650
H          H       0.07930   0.23460   0.83330
C          C       0.21930   0.38320   0.87470
H          H       0.19910   0.38120   0.91560
H          H       0.22570   0.46360   0.86220
H          H       0.27470   0.34390   0.89400
C          C       0.13090   0.36880   0.73130
H          H       0.15550   0.44010   0.72730
N          N       0.15740   0.32480   0.80300
O          O       0.13150   0.53830   0.60290
O          O       0.08410   0.65990   0.49770
O          O       0.08810   0.33680   0.50410
O          O       0.03380   0.45990   0.39900
O          O       0.07850   0.32660   0.67010
Zn         Zn      0.03280   0.41830   0.56830
H          H       0.76270   0.99980   0.00490
C          C       0.64880   0.91050   0.96110
C          C       0.56730   0.90760   0.96440
C          C       0.54330   0.00040   0.00110
C          C       0.50960   0.80810   0.93400
H          H       0.52820   0.74230   0.91590
C          C       0.87730   0.21660   0.68480
H          H       0.83090   0.17210   0.64410
H          H       0.90330   0.17130   0.73350
H          H       0.92070   0.23460   0.66670
C          C       0.78070   0.38320   0.62530
H          H       0.80090   0.38120   0.58440
H          H       0.77430   0.46360   0.63780
H          H       0.72530   0.34390   0.60600
C          C       0.86910   0.36880   0.76870
H          H       0.84450   0.44010   0.77270
N          N       0.84260   0.32480   0.69700
O          O       0.86850   0.53830   0.89710
O          O       0.91590   0.65990   0.00230
O          O       0.91190   0.33680   0.99590
O          O       0.96620   0.45990   0.10100
O          O       0.92150   0.32660   0.82990
Zn         Zn      0.96720   0.41830   0.93170
C          C       0.86010   0.37630   0.43600
C          C       0.77270   0.31390   0.39870
C          C       0.71190   0.34120   0.32210
H          H       0.72450   0.39720   0.29220
C          C       0.63020   0.28390   0.28910
H          H       0.58920   0.30050   0.23680
C          C       0.61160   0.20360   0.33460
H          H       0.55730   0.16690   0.31230
C          C       0.67140   0.17490   0.41320
C          C       0.75340   0.22810   0.44420
H          H       0.79580   0.20720   0.49510
C          C       0.75650   0.82390   0.59120
C          C       0.77320   0.79420   0.66980
H          H       0.74200   0.83100   0.69370
C          C       0.83630   0.70960   0.71290
H          H       0.84580   0.68990   0.76490
C          C       0.88410   0.65560   0.67910
H          H       0.92570   0.59900   0.70780
C          C       0.86960   0.68690   0.60020
C          C       0.80700   0.77030   0.55730
H          H       0.79820   0.79090   0.50570
C          C       0.92030   0.62610   0.56190
C          C       0.57210   0.80830   0.56880
H          H       0.60860   0.74380   0.59030
C          C       0.60180   0.90590   0.53910
C          C       0.68820   0.91190   0.54430
C          C       0.70760   0.00000   0.50380
H          H       0.76270   0.00020   0.50490
C          C       0.64880   0.08950   0.46110
C          C       0.56730   0.09240   0.46440
C          C       0.54330   0.99960   0.50110
C          C       0.50960   0.19190   0.43400
H          H       0.52820   0.25770   0.41590
C          C       0.87730   0.78340   0.18480
H          H       0.83090   0.82790   0.14410
H          H       0.90330   0.82870   0.23350
H          H       0.92070   0.76540   0.16670
C          C       0.78070   0.61680   0.12530
H          H       0.80090   0.61880   0.08440
H          H       0.77430   0.53640   0.13780
H          H       0.72530   0.65610   0.10600
C          C       0.86910   0.63120   0.26870
H          H       0.84450   0.55990   0.27270
N          N       0.84260   0.67520   0.19700
O          O       0.86850   0.46170   0.39710
O          O       0.91590   0.34010   0.50230
O          O       0.91190   0.66320   0.49590
O          O       0.96620   0.54010   0.60100
O          O       0.92150   0.67340   0.32990
Zn         Zn      0.96720   0.58170   0.43170
C          C       0.13990   0.37630   0.06400
C          C       0.22730   0.31390   0.10130
C          C       0.28810   0.34120   0.17790
H          H       0.27550   0.39720   0.20780
C          C       0.36980   0.28390   0.21090
H          H       0.41080   0.30050   0.26320
C          C       0.38840   0.20360   0.16540
H          H       0.44270   0.16690   0.18770
C          C       0.32860   0.17490   0.08680
C          C       0.24660   0.22810   0.05580
H          H       0.20420   0.20720   0.00490
C          C       0.24350   0.82390   0.90880
C          C       0.22680   0.79420   0.83020
H          H       0.25800   0.83100   0.80630
C          C       0.16370   0.70960   0.78710
H          H       0.15420   0.68990   0.73510
C          C       0.11590   0.65560   0.82090
H          H       0.07430   0.59900   0.79220
C          C       0.13040   0.68690   0.89980
C          C       0.19300   0.77030   0.94270
H          H       0.20180   0.79090   0.99430
C          C       0.07970   0.62610   0.93810
C          C       0.42790   0.80830   0.93120
H          H       0.39140   0.74380   0.90970
C          C       0.39820   0.90590   0.96090
C          C       0.31180   0.91190   0.95570
C          C       0.29240   0.00000   0.99620
H          H       0.23730   0.00020   0.99510
C          C       0.35120   0.08950   0.03890
C          C       0.43270   0.09240   0.03560
C          C       0.45670   0.99960   0.99890
C          C       0.49040   0.19190   0.06600
H          H       0.47180   0.25770   0.08410
C          C       0.12270   0.78340   0.31520
H          H       0.16910   0.82790   0.35590
H          H       0.09670   0.82870   0.26650
H          H       0.07930   0.76540   0.33330
C          C       0.21930   0.61680   0.37470
H          H       0.19910   0.61880   0.41560
H          H       0.22570   0.53640   0.36220
H          H       0.27470   0.65610   0.39400
C          C       0.13090   0.63120   0.23130
H          H       0.15550   0.55990   0.22730
N          N       0.15740   0.67520   0.30300
O          O       0.13150   0.46170   0.10290
O          O       0.08410   0.34010   0.99770
O          O       0.08810   0.66320   0.00410
O          O       0.03380   0.54010   0.89900
O          O       0.07850   0.67340   0.17010
Zn         Zn      0.03280   0.58170   0.06830
C          C       0.86010   0.62370   0.93600
C          C       0.77270   0.68610   0.89870
C          C       0.71190   0.65880   0.82210
H          H       0.72450   0.60280   0.79220
C          C       0.63020   0.71610   0.78910
H          H       0.58920   0.69950   0.73680
C          C       0.61160   0.79640   0.83460
H          H       0.55730   0.83310   0.81230
C          C       0.67140   0.82510   0.91320
C          C       0.75340   0.77190   0.94420
H          H       0.79580   0.79280   0.99510
C          C       0.75650   0.17610   0.09120
C          C       0.77320   0.20580   0.16980
H          H       0.74200   0.16900   0.19370
C          C       0.83630   0.29040   0.21290
H          H       0.84580   0.31010   0.26490
C          C       0.88410   0.34440   0.17910
H          H       0.92570   0.40100   0.20780
C          C       0.86960   0.31310   0.10020
C          C       0.80700   0.22970   0.05730
H          H       0.79820   0.20910   0.00570
C          C       0.92030   0.37390   0.06190
C          C       0.57210   0.19170   0.06880
H          H       0.60860   0.25620   0.09030
C          C       0.60180   0.09410   0.03910
C          C       0.68820   0.08810   0.04430
C          C       0.70760   0.00000   0.00380
