data_crystal

_cell_length_a    20.18000
_cell_length_b    21.21200
_cell_length_c    16.61580
_cell_angle_alpha 90.00000
_cell_angle_beta  107.61000
_cell_angle_gamma 90.00000

_symmetry_space_group_name_Hall 'P 1'
_symmetry_space_group_name_H-M  'P 1'

loop_
_symmetry_equiv_pos_as_xyz
 'x,y,z'

loop_
_atom_site_label
_atom_site_type_symbol
_atom_site_fract_x
_atom_site_fract_y
_atom_site_fract_z
H          H       0.12250   0.23830   0.44730
H          H       0.37750   0.34650   0.05270
H          H       0.62250   0.73830   0.44730
H          H       0.87750   0.84650   0.05270
H          H       0.12250   0.84650   0.19730
H          H       0.62250   0.34650   0.19730
H          H       0.87750   0.23830   0.30270
H          H       0.37750   0.73830   0.30270
O          O       0.02470   0.14060   0.48500
P          P       0.07330   0.19330   0.00370
O          O       0.07830   0.02990   0.24880
Ba         Ba      0.00000   0.04350   0.37500
P          P       0.13920   0.06650   0.30080
O          O       0.20840   0.02770   0.31710
O          O       0.13150   0.08840   0.38370
O          O       0.03960   0.25890   0.48760
C          C       0.15770   0.13310   0.24320
C          C       0.21190   0.17570   0.27980
C          C       0.22280   0.22780   0.23170
C          C       0.18000   0.23580   0.14690
C          C       0.19260   0.28880   0.10040
H          H       0.16500   0.29460   0.04490
C          C       0.25640   0.16950   0.36470
H          H       0.25000   0.13560   0.39690
C          C       0.12650   0.19160   0.11190
C          C       0.11610   0.14190   0.16120
H          H       0.08010   0.11380   0.13820
C          C       0.21650   0.96840   0.33650
H          H       0.18300   0.94470   0.29250
H          H       0.20510   0.96190   0.38840
C          C       0.97650   0.27130   0.00300
H          H       0.98380   0.26870   0.06340
H          H       0.94350   0.23870   0.47630
O          O       0.12250   0.19590   0.44730
C          C       0.28530   0.94210   0.34700
H          H       0.30490   0.96120   0.30690
H          H       0.28150   0.89740   0.33750
H          H       0.31470   0.95030   0.40310
C          C       0.94640   0.33150   0.47350
H          H       0.93990   0.35500   0.02010
H          H       0.90230   0.32550   0.43150
H          H       0.97680   0.35440   0.44960
O          O       0.47530   0.35940   0.01500
P          P       0.42670   0.30670   0.49620
O          O       0.42170   0.47010   0.25120
P          P       0.36080   0.43350   0.19920
O          O       0.29160   0.47230   0.18280
O          O       0.36850   0.41160   0.11620
O          O       0.46040   0.24110   0.01240
C          C       0.34230   0.36690   0.25670
C          C       0.28810   0.32430   0.22020
C          C       0.27720   0.27220   0.26820
C          C       0.32000   0.26420   0.35300
C          C       0.30740   0.21120   0.39950
H          H       0.33500   0.20540   0.45500
C          C       0.24360   0.33050   0.13530
H          H       0.25000   0.36440   0.10300
C          C       0.37350   0.30840   0.38810
C          C       0.38390   0.35810   0.33870
H          H       0.41990   0.38620   0.36170
C          C       0.28350   0.53160   0.16350
H          H       0.31700   0.55530   0.20750
H          H       0.29490   0.53810   0.11160
C          C       0.52350   0.22870   0.49700
H          H       0.51620   0.23130   0.43660
H          H       0.55650   0.26130   0.02360
O          O       0.37750   0.30410   0.05270
C          C       0.21470   0.55790   0.15300
H          H       0.19510   0.53880   0.19300
H          H       0.21850   0.60260   0.16250
H          H       0.18530   0.54970   0.09680
C          C       0.55360   0.16850   0.02650
H          H       0.56010   0.14500   0.47980
H          H       0.59770   0.17450   0.06840
H          H       0.52320   0.14560   0.05040
O          O       0.97530   0.14060   0.26500
O          O       0.92170   0.02990   0.00120
O          O       0.92170   0.97010   0.25120
O          O       0.07830   0.97010   0.49880
Ba         Ba      0.50000   0.54350   0.37500
Ba         Ba      0.00000   0.95650   0.12500
Ba         Ba      0.50000   0.45650   0.12500
O          O       0.86850   0.08840   0.36620
C          C       0.34230   0.63310   0.00670
C          C       0.28810   0.67570   0.47020
C          C       0.27720   0.72780   0.01820
C          C       0.32000   0.73580   0.10300
C          C       0.30740   0.78880   0.14950
H          H       0.33500   0.79460   0.20500
C          C       0.24360   0.66950   0.38530
H          H       0.25000   0.63560   0.35300
C          C       0.37350   0.69160   0.13810
C          C       0.38390   0.64190   0.08870
H          H       0.41990   0.61380   0.11170
C          C       0.28350   0.46840   0.41350
H          H       0.31700   0.44470   0.45750
H          H       0.29490   0.46190   0.36160
C          C       0.52350   0.77130   0.24700
H          H       0.51620   0.76870   0.18660
H          H       0.55650   0.73870   0.27360
O          O       0.37750   0.69590   0.30270
C          C       0.21470   0.44210   0.40300
H          H       0.19510   0.46120   0.44300
H          H       0.21850   0.39740   0.41250
H          H       0.18530   0.45030   0.34680
C          C       0.55360   0.83150   0.27650
H          H       0.56010   0.85500   0.22980
H          H       0.59770   0.82550   0.31840
H          H       0.52320   0.85440   0.30040
O          O       0.97530   0.85940   0.01500
O          O       0.86850   0.91160   0.11620
O          O       0.52470   0.64060   0.48500
P          P       0.57330   0.69330   0.00370
O          O       0.57830   0.52990   0.24880
P          P       0.63920   0.56650   0.30080
O          O       0.70840   0.52770   0.31720
O          O       0.63150   0.58840   0.38380
O          O       0.53960   0.75890   0.48760
C          C       0.65770   0.63310   0.24320
C          C       0.71190   0.67570   0.27980
C          C       0.72280   0.72780   0.23170
C          C       0.68000   0.73580   0.14690
C          C       0.69260   0.78880   0.10040
H          H       0.66500   0.79460   0.04490
C          C       0.75640   0.66950   0.36470
H          H       0.75000   0.63560   0.39690
C          C       0.62650   0.69160   0.11190
C          C       0.61610   0.64190   0.16120
H          H       0.58010   0.61380   0.13820
C          C       0.71650   0.46840   0.33650
H          H       0.68300   0.44470   0.29250
H          H       0.70510   0.46190   0.38840
C          C       0.47650   0.77130   0.00300
H          H       0.48380   0.76870   0.06340
H          H       0.44350   0.73870   0.47630
O          O       0.62250   0.69590   0.44730
C          C       0.78530   0.44210   0.34700
H          H       0.80490   0.46120   0.30700
H          H       0.78150   0.39740   0.33750
H          H       0.81470   0.45030   0.40320
C          C       0.44640   0.83150   0.47350
H          H       0.43990   0.85500   0.02010
H          H       0.40230   0.82550   0.43150
H          H       0.47680   0.85440   0.44960
P          P       0.92670   0.80670   0.49620
P          P       0.86080   0.93350   0.19920
O          O       0.79160   0.97230   0.18280
O          O       0.96040   0.74110   0.01240
C          C       0.84230   0.86690   0.25670
C          C       0.78810   0.82430   0.22020
C          C       0.77720   0.77220   0.26820
C          C       0.82000   0.76420   0.35300
C          C       0.80740   0.71120   0.39950
H          H       0.83500   0.70540   0.45500
C          C       0.74360   0.83050   0.13530
H          H       0.75000   0.86440   0.10300
C          C       0.87350   0.80840   0.38810
C          C       0.88390   0.85810   0.33870
H          H       0.91990   0.88620   0.36170
C          C       0.78350   0.03160   0.16350
H          H       0.81700   0.05530   0.20750
H          H       0.79490   0.03810   0.11160
C          C       0.02350   0.72870   0.49700
H          H       0.01620   0.73130   0.43660
H          H       0.05650   0.76130   0.02360
O          O       0.87750   0.80410   0.05270
C          C       0.71470   0.05790   0.15300
H          H       0.69510   0.03880   0.19300
H          H       0.71850   0.10260   0.16250
H          H       0.68530   0.04970   0.09680
C          C       0.05360   0.66850   0.02650
H          H       0.06010   0.64500   0.47980
H          H       0.09770   0.67450   0.06850
H          H       0.02320   0.64560   0.05040
O          O       0.47530   0.64060   0.26500
O          O       0.42170   0.52990   0.00120
O          O       0.57830   0.47010   0.49880
O          O       0.36850   0.58840   0.36620
P          P       0.42670   0.69330   0.24620
P          P       0.36080   0.56650   0.44920
O          O       0.29160   0.52770   0.43280
O          O       0.46040   0.75890   0.26240
O          O       0.02470   0.85940   0.23500
P          P       0.07330   0.80670   0.25370
P          P       0.13920   0.93350   0.05080
O          O       0.20840   0.97230   0.06710
O          O       0.13150   0.91160   0.13370
O          O       0.03960   0.74110   0.23760
C          C       0.15770   0.86690   0.49320
C          C       0.21190   0.82430   0.02980
C          C       0.22280   0.77220   0.48170
C          C       0.18000   0.76420   0.39690
C          C       0.19260   0.71120   0.35040
H          H       0.16500   0.70540   0.29490
C          C       0.25640   0.83050   0.11470
H          H       0.25000   0.86440   0.14690
C          C       0.12650   0.80840   0.36190
C          C       0.11610   0.85810   0.41120
H          H       0.08010   0.88620   0.38820
C          C       0.21650   0.03160   0.08650
H          H       0.18300   0.05530   0.04250
H          H       0.20510   0.03810   0.13840
C          C       0.97650   0.72870   0.25300
H          H       0.98380   0.73130   0.31340
H          H       0.94350   0.76130   0.22630
O          O       0.12250   0.80410   0.19730
C          C       0.28530   0.05790   0.09700
H          H       0.30490   0.03880   0.05690
H          H       0.28150   0.10260   0.08750
H          H       0.31470   0.04970   0.15320
C          C       0.94640   0.66850   0.22350
H          H       0.93990   0.64500   0.27010
H          H       0.90230   0.67450   0.18150
H          H       0.97680   0.64560   0.19960
H          H       0.37750   0.26170   0.05270
H          H       0.12250   0.15350   0.44730
H          H       0.87750   0.76170   0.05270
H          H       0.62250   0.65350   0.44730
H          H       0.37750   0.65350   0.30270
H          H       0.87750   0.15350   0.30270
H          H       0.62250   0.26170   0.19730
H          H       0.12250   0.76170   0.19730
O          O       0.52470   0.35940   0.23500
O          O       0.63150   0.41160   0.13380
P          P       0.57330   0.30670   0.25370
P          P       0.63920   0.43350   0.05080
O          O       0.70840   0.47230   0.06720
O          O       0.53960   0.24110   0.23760
C          C       0.65770   0.36690   0.49320
C          C       0.71190   0.32430   0.02980
C          C       0.72280   0.27220   0.48180
C          C       0.68000   0.26420   0.39700
C          C       0.69260   0.21120   0.35040
H          H       0.66500   0.20540   0.29490
C          C       0.75640   0.33050   0.11470
H          H       0.75000   0.36440   0.14700
C          C       0.62650   0.30840   0.36190
C          C       0.61610   0.35810   0.41130
H          H       0.58010   0.38620   0.38820
C          C       0.71650   0.53160   0.08650
H          H       0.68300   0.55530   0.04250
H          H       0.70510   0.53810   0.13840
C          C       0.47650   0.22870   0.25300
H          H       0.48380   0.23130   0.31340
H          H       0.44350   0.26130   0.22640
O          O       0.62250   0.30410   0.19730
C          C       0.78530   0.55790   0.09700
H          H       0.80490   0.53880   0.05700
H          H       0.78150   0.60260   0.08750
H          H       0.81470   0.54970   0.15320
C          C       0.44640   0.16850   0.22350
H          H       0.43990   0.14500   0.27020
H          H       0.40230   0.17450   0.18160
H          H       0.47680   0.14560   0.19960
P          P       0.92670   0.19330   0.24630
P          P       0.86080   0.06650   0.44920
O          O       0.79160   0.02770   0.43280
O          O       0.96040   0.25890   0.26240
C          C       0.84230   0.13310   0.00670
C          C       0.78810   0.17570   0.47020
C          C       0.77720   0.22780   0.01820
C          C       0.82000   0.23580   0.10300
C          C       0.80740   0.28880   0.14960
H          H       0.83500   0.29460   0.20500
C          C       0.74360   0.16950   0.38530
H          H       0.75000   0.13560   0.35300
C          C       0.87350   0.19160   0.13810
C          C       0.88390   0.14190   0.08870
H          H       0.91990   0.11380   0.11170
C          C       0.78350   0.96840   0.41350
H          H       0.81700   0.94470   0.45750
H          H       0.79490   0.96190   0.36160
C          C       0.02350   0.27130   0.24700
H          H       0.01620   0.26870   0.18660
H          H       0.05650   0.23870   0.27370
O          O       0.87750   0.19590   0.30270
C          C       0.71470   0.94210   0.40300
H          H       0.69510   0.96120   0.44300
H          H       0.71850   0.89740   0.41250
H          H       0.68530   0.95030   0.34680
C          C       0.05360   0.33150   0.27650
H          H       0.06010   0.35500   0.22980
H          H       0.09770   0.32550   0.31850
H          H       0.02320   0.35440   0.30040
H          H       0.12250   0.23830   0.94730
H          H       0.37750   0.34650   0.55270
H          H       0.62250   0.73830   0.94730
H          H       0.87750   0.84650   0.55270
H          H       0.12250   0.84650   0.69730
H          H       0.62250   0.34650   0.69730
H          H       0.87750   0.23830   0.80270
H          H       0.37750   0.73830   0.80270
O          O       0.02470   0.14060   0.98500
P          P       0.07330   0.19330   0.50370
O          O       0.07830   0.02990   0.74880
Ba         Ba      0.00000   0.04350   0.87500
P          P       0.13920   0.06650   0.80080
O          O       0.20840   0.02770   0.81710
O          O       0.13150   0.08840   0.88370
O          O       0.03960   0.25890   0.98760
C          C       0.15770   0.13310   0.74320
C          C       0.21190   0.17570   0.77980
C          C       0.22280   0.22780   0.73170
C          C       0.18000   0.23580   0.64690
C          C       0.19260   0.28880   0.60040
H          H       0.16500   0.29460   0.54490
C          C       0.25640   0.16950   0.86470
H          H       0.25000   0.13560   0.89690
C          C       0.12650   0.19160   0.61190
C          C       0.11610   0.14190   0.66120
H          H       0.08010   0.11380   0.63820
C          C       0.21650   0.96840   0.83650
H          H       0.18300   0.94470   0.79250
H          H       0.20510   0.96190   0.88840
C          C       0.97650   0.27130   0.50300
H          H       0.98380   0.26870   0.56340
H          H       0.94350   0.23870   0.97630
O          O       0.12250   0.19590   0.94730
C          C       0.28530   0.94210   0.84700
H          H       0.30490   0.96120   0.80690
H          H       0.28150   0.89740   0.83750
H          H       0.31470   0.95030   0.90310
C          C       0.94640   0.33150   0.97350
H          H       0.93990   0.35500   0.52010
H          H       0.90230   0.32550   0.93150
H          H       0.97680   0.35440   0.94960
O          O       0.47530   0.35940   0.51500
P          P       0.42670   0.30670   0.99620
O          O       0.42170   0.47010   0.75120
P          P       0.36080   0.43350   0.69920
O          O       0.29160   0.47230   0.68280
O          O       0.36850   0.41160   0.61620
O          O       0.46040   0.24110   0.51240
C          C       0.34230   0.36690   0.75670
C          C       0.28810   0.32430   0.72020
C          C       0.27720   0.27220   0.76820
C          C       0.32000   0.26420   0.85300
C          C       0.30740   0.21120   0.89950
H          H       0.33500   0.20540   0.95500
C          C       0.24360   0.33050   0.63530
H          H       0.25000   0.36440   0.60300
C          C       0.37350   0.30840   0.88810
C          C       0.38390   0.35810   0.83870
H          H       0.41990   0.38620   0.86170
C          C       0.28350   0.53160   0.66350
H          H       0.31700   0.55530   0.70750
H          H       0.29490   0.53810   0.61160
C          C       0.52350   0.22870   0.99700
H          H       0.51620   0.23130   0.93660
H          H       0.55650   0.26130   0.52360
O          O       0.37750   0.30410   0.55270
C          C       0.21470   0.55790   0.65300
H          H       0.19510   0.53880   0.69300
H          H       0.21850   0.60260   0.66250
H          H       0.18530   0.54970   0.59680
C          C       0.55360   0.16850   0.52650
H          H       0.56010   0.14500   0.97980
H          H       0.59770   0.17450   0.56840
H          H       0.52320   0.14560   0.55040
O          O       0.97530   0.14060   0.76500
O          O       0.92170   0.02990   0.50120
O          O       0.92170   0.97010   0.75120
O          O       0.07830   0.97010   0.99880
Ba         Ba      0.50000   0.54350   0.87500
Ba         Ba      0.00000   0.95650   0.62500
Ba         Ba      0.50000   0.45650   0.62500
O          O       0.86850   0.08840   0.86620
C          C       0.34230   0.63310   0.50670
C          C       0.28810   0.67570   0.97020
C          C       0.27720   0.72780   0.51820
C          C       0.32000   0.73580   0.60300
C          C       0.30740   0.78880   0.64950
H          H       0.33500   0.79460   0.70500
C          C       0.24360   0.66950   0.88530
H          H       0.25000   0.63560   0.85300
C          C       0.37350   0.69160   0.63810
C          C       0.38390   0.64190   0.58870
H          H       0.41990   0.61380   0.61170
C          C       0.28350   0.46840   0.91350
H          H       0.31700   0.44470   0.95750
H          H       0.29490   0.46190   0.86160
C          C       0.52350   0.77130   0.74700
H          H       0.51620   0.76870   0.68660
H          H       0.55650   0.73870   0.77360
O          O       0.37750   0.69590   0.80270
C          C       0.21470   0.44210   0.90300
H          H       0.19510   0.46120   0.94300
H          H       0.21850   0.39740   0.91250
H          H       0.18530   0.45030   0.84680
C          C       0.55360   0.83150   0.77650
H          H       0.56010   0.85500   0.72980
H          H       0.59770   0.82550   0.81840
H          H       0.52320   0.85440   0.80040
O          O       0.97530   0.85940   0.51500
O          O       0.86850   0.91160   0.61620
O          O       0.52470   0.64060   0.98500
P          P       0.57330   0.69330   0.50370
O          O       0.57830   0.52990   0.74880
P          P       0.63920   0.56650   0.80080
O          O       0.70840   0.52770   0.81710
O          O       0.63150   0.58840   0.88370
O          O       0.53960   0.75890   0.98760
C          C       0.65770   0.63310   0.74320
C          C       0.71190   0.67570   0.77980
C          C       0.72280   0.72780   0.73170
C          C       0.68000   0.73580   0.64690
C          C       0.69260   0.78880   0.60040
H          H       0.66500   0.79460   0.54490
C          C       0.75640   0.66950   0.86470
H          H       0.75000   0.63560   0.89690
C          C       0.62650   0.69160   0.61190
C          C       0.61610   0.64190   0.66120
H          H       0.58010   0.61380   0.63820
C          C       0.71650   0.46840   0.83650
H          H       0.68300   0.44470   0.79250
H          H       0.70510   0.46190   0.88840
C          C       0.47650   0.77130   0.50300
H          H       0.48380   0.76870   0.56340
H          H       0.44350   0.73870   0.97630
O          O       0.62250   0.69590   0.94730
C          C       0.78530   0.44210   0.84700
H          H       0.80490   0.46120   0.80690
H          H       0.78150   0.39740   0.83750
H          H       0.81470   0.45030   0.90310
C          C       0.44640   0.83150   0.97350
H          H       0.43990   0.85500   0.52010
H          H       0.40230   0.82550   0.93150
H          H       0.47680   0.85440   0.94960
P          P       0.92670   0.80670   0.99620
P          P       0.86080   0.93350   0.69920
O          O       0.79160   0.97230   0.68280
O          O       0.96040   0.74110   0.51240
C          C       0.84230   0.86690   0.75670
C          C       0.78810   0.82430   0.72020
C          C       0.77720   0.77220   0.76820
C          C       0.82000   0.76420   0.85300
C          C       0.80740   0.71120   0.89950
H          H       0.83500   0.70540   0.95500
C          C       0.74360   0.83050   0.63530
H          H       0.75000   0.86440   0.60300
C          C       0.87350   0.80840   0.88810
C          C       0.88390   0.85810   0.83870
H          H       0.91990   0.88620   0.86180
C          C       0.78350   0.03160   0.66350
H          H       0.81700   0.05530   0.70750
H          H       0.79490   0.03810   0.61160
C          C       0.02350   0.72870   0.99700
H          H       0.01620   0.73130   0.93660
H          H       0.05650   0.76130   0.52360
O          O       0.87750   0.80410   0.55270
C          C       0.71470   0.05790   0.65300
H          H       0.69510   0.03880   0.69300
H          H       0.71850   0.10260   0.66250
H          H       0.68530   0.04970   0.59680
C          C       0.05360   0.66850   0.52650
H          H       0.06010   0.64500   0.97980
H          H       0.09770   0.67450   0.56850
H          H       0.02320   0.64560   0.55040
O          O       0.47530   0.64060   0.76500
O          O       0.42170   0.52990   0.50120
O          O       0.57830   0.47010   0.99880
O          O       0.36850   0.58840   0.86620
P          P       0.42670   0.69330   0.74620
P          P       0.36080   0.56650   0.94920
O          O       0.29160   0.52770   0.93280
O          O       0.46040   0.75890   0.76240
O          O       0.02470   0.85940   0.73500
P          P       0.07330   0.80670   0.75370
P          P       0.13920   0.93350   0.55080
O          O       0.20840   0.97230   0.56710
O          O       0.13150   0.91160   0.63370
O          O       0.03960   0.74110   0.73760
C          C       0.15770   0.86690   0.99320
C          C       0.21190   0.82430   0.52980
C          C       0.22280   0.77220   0.98170
C          C       0.18000   0.76420   0.89690
C          C       0.19260   0.71120   0.85040
H          H       0.16500   0.70540   0.79490
C          C       0.25640   0.83050   0.61470
H          H       0.25000   0.86440   0.64690
C          C       0.12650   0.80840   0.86190
C          C       0.11610   0.85810   0.91120
H          H       0.08010   0.88620   0.88820
C          C       0.21650   0.03160   0.58650
H          H       0.18300   0.05530   0.54250
H          H       0.20510   0.03810   0.63840
C          C       0.97650   0.72870   0.75300
H          H       0.98380   0.73130   0.81340
H          H       0.94350   0.76130   0.72630
O          O       0.12250   0.80410   0.69730
C          C       0.28530   0.05790   0.59700
H          H       0.30490   0.03880   0.55690
H          H       0.28150   0.10260   0.58750
H          H       0.31470   0.04970   0.65320
C          C       0.94640   0.66850   0.72350
H          H       0.93990   0.64500   0.77010
H          H       0.90230   0.67450   0.68150
H          H       0.97680   0.64560   0.69960
H          H       0.37750   0.26170   0.55270
H          H       0.12250   0.15350   0.94730
H          H       0.87750   0.76170   0.55270
H          H       0.62250   0.65350   0.94730
H          H       0.37750   0.65350   0.80270
H          H       0.87750   0.15350   0.80270
H          H       0.62250   0.26170   0.69730
H          H       0.12250   0.76170   0.69730
O          O       0.52470   0.35940   0.73500
O          O       0.63150   0.41160   0.63370
P          P       0.57330   0.30670   0.75370
P          P       0.63920   0.43350   0.55080
O          O       0.70840   0.47230   0.56710
O          O       0.53960   0.24110   0.73760
C          C       0.65770   0.36690   0.99320
C          C       0.71190   0.32430   0.52980
C          C       0.72280   0.27220   0.98180
C          C       0.68000   0.26420   0.89700
C          C       0.69260   0.21120   0.85040
H          H       0.66500   0.20540   0.79490
C          C       0.75640   0.33050   0.61470
H          H       0.75000   0.36440   0.64700
C          C       0.62650   0.30840   0.86190
C          C       0.61610   0.35810   0.91130
H          H       0.58010   0.38620   0.88820
C          C       0.71650   0.53160   0.58650
H          H       0.68300   0.55530   0.54250
H          H       0.70510   0.53810   0.63840
C          C       0.47650   0.22870   0.75300
H          H       0.48380   0.23130   0.81340
H          H       0.44350   0.26130   0.72640
O          O       0.62250   0.30410   0.69730
C          C       0.78530   0.55790   0.59700
H          H       0.80490   0.53880   0.55690
H          H       0.78150   0.60260   0.58750
H          H       0.81470   0.54970   0.65310
C          C       0.44640   0.16850   0.72350
H          H       0.43990   0.14500   0.77020
H          H       0.40230   0.17450   0.68150
H          H       0.47680   0.14560   0.69960
P          P       0.92670   0.19330   0.74630
P          P       0.86080   0.06650   0.94920
O          O       0.79160   0.02770   0.93280
O          O       0.96040   0.25890   0.76240
C          C       0.84230   0.13310   0.50670
C          C       0.78810   0.17570   0.97020
C          C       0.77720   0.22780   0.51820
C          C       0.82000   0.23580   0.60300
C          C       0.80740   0.28880   0.64960
H          H       0.83500   0.29460   0.70500
C          C       0.74360   0.16950   0.88530
H          H       0.75000   0.13560   0.85300
C          C       0.87350   0.19160   0.63810
C          C       0.88390   0.14190   0.58870
H          H       0.91990   0.11380   0.61170
C          C       0.78350   0.96840   0.91350
H          H       0.81700   0.94470   0.95750
H          H       0.79490   0.96190   0.86160
C          C       0.02350   0.27130   0.74700
H          H       0.01620   0.26870   0.68660
H          H       0.05650   0.23870   0.77360
O          O       0.87750   0.19590   0.80270
C          C       0.71470   0.94210   0.90300
H          H       0.69510   0.96120   0.94300
H          H       0.71850   0.89740   0.91250
H          H       0.68530   0.95030   0.84680
C          C       0.05360   0.33150   0.77650
H          H       0.06010   0.35500   0.72980
H          H       0.09770   0.32550   0.81850
H          H       0.02320   0.35440   0.80040
