data_crystal

_cell_length_a    30.19600
_cell_length_b    17.02800
_cell_length_c    22.53800
_cell_angle_alpha 90.00000
_cell_angle_beta  96.28000
_cell_angle_gamma 90.00000

_symmetry_space_group_name_Hall 'P 1'
_symmetry_space_group_name_H-M  'P 1'

loop_
_symmetry_equiv_pos_as_xyz
 'x,y,z'

loop_
_atom_site_label
_atom_site_type_symbol
_atom_site_fract_x
_atom_site_fract_y
_atom_site_fract_z
O          O       0.23220   0.35710   0.12830
O          O       0.63000   0.41860   0.10910
C          C       0.33070  -0.00000   0.05330
H          H       0.29970  -0.00000   0.04760
C          C       0.47180  -0.00000   0.07720
C          C       0.35320   0.07170   0.05750
C          C       0.57000   0.14410   0.09350
C          C       0.54270   0.07240   0.08410
C          C       0.33290   0.20810   0.02230
H          H       0.35310   0.20520   0.99400
C          C       0.30850   0.27780   0.02880
H          H       0.31250   0.32120   0.00500
C          C       0.63270   0.21280   0.14570
H          H       0.65850   0.21180   0.17220
C          C       0.29330   0.14950   0.09680
H          H       0.28720   0.10540   0.11890
O          O       0.26340   0.41800   0.05730
C          C       0.27840   0.28080   0.07140
C          C       0.58460   0.28170   0.07290
H          H       0.57730   0.32740   0.05140
C          C       0.62000   0.28190   0.11570
C          C       0.64540   0.35470   0.13090
C          C       0.32650   0.14480   0.05810
C          C       0.49510   0.07170   0.08050
C          C       0.56490  -0.00000   0.08550
H          H       0.59590  -0.00000   0.08740
C          C       0.40020   0.07160   0.06440
C          C       0.42530   0.14230   0.07710
H          H       0.41010   0.18940   0.08000
C          C       0.27020   0.21530   0.10310
H          H       0.24840   0.21650   0.12930
C          C       0.60740   0.14570   0.13640
H          H       0.61510   0.10100   0.15890
C          C       0.55890   0.21380   0.06020
H          H       0.53490   0.21440   0.03060
C          C       0.42400  -0.00000   0.06680
C          C       0.25700   0.35410   0.08430
C          C       0.47080   0.14270   0.08500
H          H       0.48600   0.18960   0.09340
C          C       0.94720   0.50000   0.44930
C          C       0.91210   0.50000   0.55560
C          C       0.79940   0.50000   0.29950
C          C       0.97540   0.50000   0.50160
C          C       0.98810   0.50000   0.61050
H          H       0.97630   0.50000   0.64690
C          C       0.95820   0.50000   0.55570
C          C       0.87030   0.50000   0.39370
C          C       0.90200   0.50000   0.44800
C          C       0.88550   0.50000   0.50300
H          H       0.85480   0.50000   0.50400
C          C       0.96740   0.50000   0.39010
H          H       0.94890   0.50000   0.35430
C          C       0.85350   0.43390   0.36870
H          H       0.86650   0.38650   0.38130
C          C       0.81670   0.43250   0.32350
H          H       0.80450   0.38460   0.31040
O          O       0.82280   0.50000   0.91350
O          O       0.68070   0.35580   0.16650
O          O       0.65360   0.50000   0.22430
O          O       0.71980   0.50000   0.82440
O          O       0.74740   0.43500   0.22970
C          C       0.88860   0.50000   0.61000
C          C       0.76380   0.50000   0.25130
C          C       0.84200   0.50000   0.71180
C          C       0.88140   0.43380   0.63670
O          O       0.72000   0.50000   0.10780
C          C       0.85720   0.43410   0.69190
H          H       0.85310   0.38740   0.71190
O          O       0.80540   0.43550   0.78710
C          C       0.81710   0.50000   0.76290
C          C       0.35320   0.92830   0.05750
C          C       0.57000   0.85590   0.09350
C          C       0.54270   0.92760   0.08410
C          C       0.33290   0.79190   0.02230
H          H       0.35310   0.79480   0.99400
C          C       0.30850   0.72220   0.02880
H          H       0.31250   0.67880   0.00500
C          C       0.63270   0.78720   0.14570
H          H       0.65850   0.78820   0.17220
C          C       0.29330   0.85050   0.09680
H          H       0.28720   0.89460   0.11890
C          C       0.27840   0.71920   0.07140
C          C       0.58460   0.71830   0.07290
H          H       0.57730   0.67260   0.05140
C          C       0.62000   0.71810   0.11570
C          C       0.64540   0.64530   0.13090
C          C       0.32650   0.85520   0.05810
C          C       0.49510   0.92830   0.08050
C          C       0.40020   0.92840   0.06440
C          C       0.42530   0.85770   0.07710
H          H       0.41010   0.81060   0.08000
C          C       0.27020   0.78470   0.10310
H          H       0.24840   0.78350   0.12930
C          C       0.60740   0.85430   0.13640
H          H       0.61510   0.89900   0.15890
C          C       0.55890   0.78620   0.06020
H          H       0.53490   0.78560   0.03060
C          C       0.25700   0.64590   0.08430
C          C       0.47080   0.85730   0.08500
H          H       0.48600   0.81040   0.09340
C          C       0.05280   0.50000   0.55070
C          C       0.08790   0.50000   0.44440
C          C       0.20060   0.50000   0.70050
C          C       0.02460   0.50000   0.49840
C          C       0.01190   0.50000   0.38950
H          H       0.02370   0.50000   0.35310
C          C       0.04180   0.50000   0.44430
C          C       0.12970   0.50000   0.60630
C          C       0.09800   0.50000   0.55200
C          C       0.11450   0.50000   0.49700
H          H       0.14520   0.50000   0.49600
C          C       0.03260   0.50000   0.60990
H          H       0.05110   0.50000   0.64570
C          C       0.14650   0.43390   0.63130
H          H       0.13350   0.38650   0.61870
C          C       0.18330   0.43250   0.67650
H          H       0.19550   0.38460   0.68960
C          C       0.11140   0.50000   0.39000
C          C       0.23620   0.50000   0.74870
C          C       0.15800   0.50000   0.28820
C          C       0.11860   0.43380   0.36330
C          C       0.14280   0.43410   0.30810
H          H       0.14690   0.38740   0.28810
C          C       0.18290   0.50000   0.23710
C          C       0.14650   0.56610   0.63130
H          H       0.13350   0.61350   0.61870
C          C       0.18330   0.56750   0.67650
H          H       0.19550   0.61540   0.68960
C          C       0.11860   0.56620   0.36330
C          C       0.14280   0.56590   0.30810
H          H       0.14690   0.61260   0.28810
C          C       0.85350   0.56610   0.36870
H          H       0.86650   0.61350   0.38130
C          C       0.81670   0.56750   0.32350
H          H       0.80450   0.61540   0.31040
O          O       0.74740   0.56500   0.22970
C          C       0.88140   0.56620   0.63670
C          C       0.85720   0.56590   0.69190
H          H       0.85310   0.61260   0.71190
O          O       0.80540   0.56450   0.78710
O          O       0.76780   0.35710   0.87170
O          O       0.37000   0.41860   0.89090
C          C       0.66930  -0.00000   0.94670
H          H       0.70030  -0.00000   0.95240
C          C       0.52820  -0.00000   0.92280
C          C       0.64680   0.07170   0.94250
C          C       0.43000   0.14410   0.90650
C          C       0.45730   0.07240   0.91590
C          C       0.66710   0.20810   0.97770
H          H       0.64690   0.20520   0.00600
C          C       0.69150   0.27780   0.97120
H          H       0.68750   0.32120   0.99500
C          C       0.36730   0.21280   0.85430
H          H       0.34150   0.21180   0.82780
C          C       0.70670   0.14950   0.90320
H          H       0.71280   0.10540   0.88110
O          O       0.73660   0.41800   0.94270
C          C       0.72160   0.28080   0.92860
C          C       0.41540   0.28170   0.92710
H          H       0.42270   0.32740   0.94860
C          C       0.38000   0.28190   0.88430
C          C       0.35460   0.35470   0.86910
C          C       0.67350   0.14480   0.94190
C          C       0.50490   0.07170   0.91950
C          C       0.43510  -0.00000   0.91450
H          H       0.40410  -0.00000   0.91260
C          C       0.59980   0.07160   0.93560
C          C       0.57470   0.14230   0.92290
H          H       0.58990   0.18940   0.92000
C          C       0.72980   0.21530   0.89690
H          H       0.75160   0.21650   0.87070
C          C       0.39260   0.14570   0.86360
H          H       0.38490   0.10100   0.84110
C          C       0.44110   0.21380   0.93980
H          H       0.46510   0.21440   0.96940
C          C       0.57600  -0.00000   0.93320
C          C       0.74300   0.35410   0.91570
C          C       0.52920   0.14270   0.91500
H          H       0.51400   0.18960   0.90660
O          O       0.17720   0.50000   0.08650
O          O       0.31940   0.35580   0.83350
O          O       0.34640   0.50000   0.77570
O          O       0.28020   0.50000   0.17560
O          O       0.28000   0.50000   0.89220
C          C       0.64680   0.92830   0.94250
C          C       0.43000   0.85590   0.90650
C          C       0.45730   0.92760   0.91590
C          C       0.66710   0.79190   0.97770
H          H       0.64690   0.79480   0.00600
C          C       0.69150   0.72220   0.97120
H          H       0.68750   0.67880   0.99500
C          C       0.36730   0.78720   0.85430
H          H       0.34150   0.78820   0.82780
C          C       0.70670   0.85050   0.90320
H          H       0.71280   0.89460   0.88110
O          O       0.73660   0.58200   0.94270
C          C       0.72160   0.71920   0.92860
C          C       0.41540   0.71830   0.92710
H          H       0.42270   0.67260   0.94860
C          C       0.38000   0.71810   0.88430
C          C       0.35460   0.64530   0.86910
C          C       0.67350   0.85520   0.94190
C          C       0.50490   0.92830   0.91950
C          C       0.59980   0.92840   0.93560
C          C       0.57470   0.85770   0.92290
H          H       0.58990   0.81060   0.92000
C          C       0.72980   0.78470   0.89690
H          H       0.75160   0.78350   0.87070
C          C       0.39260   0.85430   0.86360
H          H       0.38490   0.89900   0.84110
C          C       0.44110   0.78620   0.93980
H          H       0.46510   0.78560   0.96940
C          C       0.74300   0.64590   0.91570
C          C       0.52920   0.85730   0.91500
H          H       0.51400   0.81040   0.90660
O          O       0.31940   0.64420   0.83350
U          U       0.77170   0.50000   0.86970
U          U       0.22830   0.50000   0.13030
U          U       0.68700   0.50000   0.16710
U          U       0.31300   0.50000   0.83290
O          O       0.76780   0.64290   0.87170
O          O       0.23220   0.64290   0.12830
O          O       0.37000   0.58140   0.89090
O          O       0.63000   0.58140   0.10910
O          O       0.26340   0.58200   0.05730
O          O       0.68070   0.64420   0.16650
O          O       0.25260   0.43500   0.77030
O          O       0.25260   0.56500   0.77030
O          O       0.19460   0.43550   0.21290
O          O       0.19460   0.56450   0.21290
O          O       0.73220   0.85710   0.12830
O          O       0.13000   0.91860   0.10910
C          C       0.83070   0.50000   0.05330
H          H       0.79970   0.50000   0.04760
C          C       0.97180   0.50000   0.07720
C          C       0.85320   0.57170   0.05750
C          C       0.07000   0.64410   0.09350
C          C       0.04270   0.57240   0.08410
C          C       0.83290   0.70810   0.02230
H          H       0.85310   0.70520   0.99400
C          C       0.80850   0.77780   0.02880
H          H       0.81250   0.82120   0.00500
C          C       0.13270   0.71280   0.14570
H          H       0.15850   0.71180   0.17220
C          C       0.79330   0.64950   0.09680
H          H       0.78720   0.60540   0.11890
O          O       0.76340   0.91800   0.05730
C          C       0.77840   0.78080   0.07140
C          C       0.08460   0.78170   0.07290
H          H       0.07730   0.82740   0.05140
C          C       0.12000   0.78190   0.11570
C          C       0.14540   0.85470   0.13090
C          C       0.82650   0.64480   0.05810
C          C       0.99510   0.57170   0.08050
C          C       0.06490   0.50000   0.08550
H          H       0.09590   0.50000   0.08740
C          C       0.90020   0.57160   0.06440
C          C       0.92530   0.64230   0.07710
H          H       0.91010   0.68940   0.08000
C          C       0.77020   0.71530   0.10310
H          H       0.74840   0.71650   0.12930
C          C       0.10740   0.64570   0.13640
H          H       0.11510   0.60100   0.15890
C          C       0.05890   0.71380   0.06020
H          H       0.03490   0.71440   0.03060
C          C       0.92400   0.50000   0.06680
C          C       0.75700   0.85410   0.08430
C          C       0.97080   0.64270   0.08500
H          H       0.98600   0.68960   0.09340
C          C       0.44720  -0.00000   0.44930
C          C       0.41210  -0.00000   0.55560
C          C       0.29940  -0.00000   0.29950
C          C       0.47540  -0.00000   0.50160
C          C       0.48810  -0.00000   0.61050
H          H       0.47630  -0.00000   0.64690
C          C       0.45820  -0.00000   0.55570
C          C       0.37030  -0.00000   0.39370
C          C       0.40200  -0.00000   0.44800
C          C       0.38550  -0.00000   0.50300
H          H       0.35480  -0.00000   0.50400
C          C       0.46740  -0.00000   0.39010
H          H       0.44890  -0.00000   0.35430
C          C       0.35350   0.93390   0.36870
H          H       0.36650   0.88650   0.38130
C          C       0.31670   0.93250   0.32350
H          H       0.30450   0.88460   0.31040
O          O       0.32280  -0.00000   0.91350
O          O       0.18070   0.85580   0.16650
O          O       0.15360  -0.00000   0.22430
O          O       0.21980  -0.00000   0.82440
O          O       0.24740   0.93500   0.22970
C          C       0.38860  -0.00000   0.61000
C          C       0.26380  -0.00000   0.25130
C          C       0.34200  -0.00000   0.71180
C          C       0.38140   0.93380   0.63670
O          O       0.22000  -0.00000   0.10780
C          C       0.35720   0.93410   0.69190
H          H       0.35310   0.88740   0.71190
O          O       0.30540   0.93550   0.78710
C          C       0.31710  -0.00000   0.76290
C          C       0.85320   0.42830   0.05750
C          C       0.07000   0.35590   0.09350
C          C       0.04270   0.42760   0.08410
C          C       0.83290   0.29190   0.02230
H          H       0.85310   0.29480   0.99400
C          C       0.80850   0.22220   0.02880
H          H       0.81250   0.17880   0.00500
C          C       0.13270   0.28720   0.14570
H          H       0.15850   0.28820   0.17220
C          C       0.79330   0.35050   0.09680
H          H       0.78720   0.39460   0.11890
C          C       0.77840   0.21920   0.07140
C          C       0.08460   0.21830   0.07290
H          H       0.07730   0.17260   0.05140
C          C       0.12000   0.21810   0.11570
C          C       0.14540   0.14530   0.13090
C          C       0.82650   0.35520   0.05810
C          C       0.99510   0.42830   0.08050
C          C       0.90020   0.42840   0.06440
C          C       0.92530   0.35770   0.07710
H          H       0.91010   0.31060   0.08000
C          C       0.77020   0.28470   0.10310
H          H       0.74840   0.28350   0.12930
C          C       0.10740   0.35430   0.13640
H          H       0.11510   0.39900   0.15890
C          C       0.05890   0.28620   0.06020
H          H       0.03490   0.28560   0.03060
C          C       0.75700   0.14590   0.08430
C          C       0.97080   0.35730   0.08500
H          H       0.98600   0.31040   0.09340
C          C       0.55280  -0.00000   0.55070
C          C       0.58790  -0.00000   0.44440
C          C       0.70060  -0.00000   0.70050
C          C       0.52460  -0.00000   0.49840
C          C       0.51190  -0.00000   0.38950
H          H       0.52370  -0.00000   0.35310
C          C       0.54180  -0.00000   0.44430
C          C       0.62970  -0.00000   0.60630
C          C       0.59800  -0.00000   0.55200
C          C       0.61450  -0.00000   0.49700
H          H       0.64520  -0.00000   0.49600
C          C       0.53260  -0.00000   0.60990
H          H       0.55110  -0.00000   0.64570
C          C       0.64650   0.93390   0.63130
H          H       0.63350   0.88650   0.61870
C          C       0.68330   0.93250   0.67650
H          H       0.69550   0.88460   0.68960
C          C       0.61140  -0.00000   0.39000
C          C       0.73620  -0.00000   0.74870
C          C       0.65800  -0.00000   0.28820
C          C       0.61860   0.93380   0.36330
C          C       0.64280   0.93410   0.30810
H          H       0.64690   0.88740   0.28810
C          C       0.68290  -0.00000   0.23710
C          C       0.64650   0.06610   0.63130
H          H       0.63350   0.11350   0.61870
C          C       0.68330   0.06750   0.67650
H          H       0.69550   0.11540   0.68960
C          C       0.61860   0.06620   0.36330
C          C       0.64280   0.06590   0.30810
H          H       0.64690   0.11260   0.28810
C          C       0.35350   0.06610   0.36870
H          H       0.36650   0.11350   0.38130
C          C       0.31670   0.06750   0.32350
H          H       0.30450   0.11540   0.31040
O          O       0.24740   0.06500   0.22970
C          C       0.38140   0.06620   0.63670
C          C       0.35720   0.06590   0.69190
H          H       0.35310   0.11260   0.71190
O          O       0.30540   0.06450   0.78710
O          O       0.26780   0.85710   0.87170
O          O       0.87000   0.91860   0.89090
C          C       0.16930   0.50000   0.94670
H          H       0.20030   0.50000   0.95240
C          C       0.02820   0.50000   0.92280
C          C       0.14680   0.57170   0.94250
C          C       0.93000   0.64410   0.90650
C          C       0.95730   0.57240   0.91590
C          C       0.16710   0.70810   0.97770
H          H       0.14690   0.70520   0.00600
C          C       0.19150   0.77780   0.97120
H          H       0.18750   0.82120   0.99500
C          C       0.86730   0.71280   0.85430
H          H       0.84150   0.71180   0.82780
C          C       0.20670   0.64950   0.90320
H          H       0.21280   0.60540   0.88110
O          O       0.23660   0.91800   0.94270
C          C       0.22160   0.78080   0.92860
C          C       0.91540   0.78170   0.92710
H          H       0.92270   0.82740   0.94860
C          C       0.88000   0.78190   0.88430
C          C       0.85460   0.85470   0.86910
C          C       0.17350   0.64480   0.94190
C          C       0.00490   0.57170   0.91950
C          C       0.93510   0.50000   0.91450
H          H       0.90410   0.50000   0.91260
C          C       0.09980   0.57160   0.93560
C          C       0.07470   0.64230   0.92290
H          H       0.08990   0.68940   0.92000
C          C       0.22980   0.71530   0.89690
H          H       0.25160   0.71650   0.87070
C          C       0.89260   0.64570   0.86360
H          H       0.88490   0.60100   0.84110
C          C       0.94110   0.71380   0.93980
H          H       0.96510   0.71440   0.96940
C          C       0.07600   0.50000   0.93320
C          C       0.24300   0.85410   0.91570
C          C       0.02920   0.64270   0.91500
H          H       0.01400   0.68960   0.90660
O          O       0.67720  -0.00000   0.08650
O          O       0.81940   0.85580   0.83350
O          O       0.84640  -0.00000   0.77570
O          O       0.78020  -0.00000   0.17560
O          O       0.78000  -0.00000   0.89220
C          C       0.14680   0.42830   0.94250
C          C       0.93000   0.35590   0.90650
C          C       0.95730   0.42760   0.91590
C          C       0.16710   0.29190   0.97770
H          H       0.14690   0.29480   0.00600
C          C       0.19150   0.22220   0.97120
H          H       0.18750   0.17880   0.99500
C          C       0.86730   0.28720   0.85430
H          H       0.84150   0.28820   0.82780
C          C       0.20670   0.35050   0.90320
H          H       0.21280   0.39460   0.88110
O          O       0.23660   0.08200   0.94270
C          C       0.22160   0.21920   0.92860
C          C       0.91540   0.21830   0.92710
H          H       0.92270   0.17260   0.94860
C          C       0.88000   0.21810   0.88430
C          C       0.85460   0.14530   0.86910
C          C       0.17350   0.35520   0.94190
C          C       0.00490   0.42830   0.91950
C          C       0.09980   0.42840   0.93560
C          C       0.07470   0.35770   0.92290
H          H       0.08990   0.31060   0.92000
C          C       0.22980   0.28470   0.89690
H          H       0.25160   0.28350   0.87070
C          C       0.89260   0.35430   0.86360
H          H       0.88490   0.39900   0.84110
C          C       0.94110   0.28620   0.93980
H          H       0.96510   0.28560   0.96940
C          C       0.24300   0.14590   0.91570
C          C       0.02920   0.35730   0.91500
H          H       0.01400   0.31040   0.90660
O          O       0.81940   0.14420   0.83350
U          U       0.27170  -0.00000   0.86970
U          U       0.72830  -0.00000   0.13030
U          U       0.18700  -0.00000   0.16710
U          U       0.81300  -0.00000   0.83290
O          O       0.26780   0.14290   0.87170
O          O       0.73220   0.14290   0.12830
O          O       0.87000   0.08140   0.89090
O          O       0.13000   0.08140   0.10910
O          O       0.76340   0.08200   0.05730
O          O       0.18070   0.14420   0.16650
O          O       0.75260   0.93500   0.77030
O          O       0.75260   0.06500   0.77030
O          O       0.69460   0.93550   0.21290
O          O       0.69460   0.06450   0.21290
H          H       0.61302   0.88335   0.37657
H          H       0.40157   0.90994   0.60967
H          H       0.38713   0.10684   0.62315
H          H       0.61389   0.11395   0.37374
H          H       0.88342   0.39681   0.61888
H          H       0.87930   0.59719   0.60992
H          H       0.12035   0.39494   0.38987
H          H       0.11156   0.60938   0.38101
