data_crystal

_cell_length_a    15.28580
_cell_length_b    17.38110
_cell_length_c    17.38110
_cell_angle_alpha 102.43000
_cell_angle_beta  -95.66000
_cell_angle_gamma 95.66000

_symmetry_space_group_name_Hall 'P 1'
_symmetry_space_group_name_H-M  'P 1'

loop_
_symmetry_equiv_pos_as_xyz
 'x,y,z'

loop_
_atom_site_label
_atom_site_type_symbol
_atom_site_fract_x
_atom_site_fract_y
_atom_site_fract_z
C          C       0.48920   0.92510   0.06430
C          C       0.47760   0.78760   0.28540
C          C       0.47540   0.85220   0.25080
C          C       0.43940   0.85960   0.00660
C          C       0.41880   0.86340   0.93040
C          C       0.26260   0.67720   0.56460
C          C       0.30630   0.74440   0.63020
C          C       0.37620   0.73350   0.68270
C          C       0.41490   0.79520   0.74580
C          C       0.38360   0.86940   0.75800
C          C       0.31330   0.87980   0.70440
C          C       0.27510   0.81820   0.64160
C          C       0.42600   0.93750   0.82250
C          C       0.44520   0.93340   0.90260
C          C       0.48890   0.00210   0.95950
C          C       0.48730   0.07850   0.85590
C          C       0.44690   0.00970   0.80190
C          C       0.49900   0.15170   0.82510
C          C       0.47550   0.22340   0.86600
C          C       0.47400   0.28800   0.83140
C          C       0.49630   0.28250   0.75490
C          C       0.48980   0.34910   0.71430
C          C       0.23740   0.32280   0.43540
C          C       0.19370   0.25550   0.36980
C          C       0.12380   0.26650   0.31730
C          C       0.08510   0.20480   0.25420
C          C       0.11640   0.13060   0.24200
C          C       0.18680   0.12020   0.29560
C          C       0.22490   0.18180   0.35840
C          C       0.07400   0.06250   0.17750
C          C       0.05480   0.06660   0.09740
C          C       0.01110   0.99790   0.04050
C          C       0.01270   0.92150   0.14410
C          C       0.05310   0.99030   0.19810
C          C       0.00100   0.84830   0.17490
C          C       0.02460   0.77660   0.13400
C          C       0.02600   0.71200   0.16860
C          C       0.00370   0.71750   0.24510
C          C       0.01020   0.65090   0.28570
C          C       0.01080   0.07490   0.93570
C          C       0.02240   0.21240   0.71460
C          C       0.02460   0.14780   0.74920
C          C       0.06060   0.14040   0.99340
C          C       0.08120   0.13660   0.06960
C          C       0.01260   0.56460   0.67720
C          C       0.05630   0.63020   0.74440
C          C       0.12620   0.68270   0.73350
C          C       0.16490   0.74580   0.79520
C          C       0.13360   0.75800   0.86940
C          C       0.06330   0.70440   0.87980
C          C       0.02510   0.64160   0.81820
C          C       0.17600   0.82250   0.93750
C          C       0.19520   0.90260   0.93340
C          C       0.23890   0.95950   0.00210
C          C       0.26080   0.93570   0.07490
C          C       0.23730   0.85590   0.07850
C          C       0.19690   0.80190   0.00970
C          C       0.24900   0.82510   0.15170
C          C       0.22540   0.86600   0.22340
C          C       0.22400   0.83140   0.28800
C          C       0.24630   0.75490   0.28250
C          C       0.27240   0.71460   0.21240
C          C       0.27460   0.74920   0.14780
C          C       0.23980   0.71430   0.34910
C          C       0.31060   0.99340   0.14040
C          C       0.33120   0.06960   0.13660
C          C       0.48740   0.43540   0.32280
C          C       0.44370   0.36970   0.25550
C          C       0.37370   0.31730   0.26650
C          C       0.33510   0.25420   0.20480
C          C       0.36640   0.24200   0.13060
C          C       0.43670   0.29560   0.12020
C          C       0.47490   0.35840   0.18180
C          C       0.32400   0.17750   0.06250
C          C       0.30480   0.09740   0.06660
C          C       0.26110   0.04050   0.99790
C          C       0.23920   0.06430   0.92510
C          C       0.26260   0.14410   0.92150
C          C       0.30300   0.19810   0.99030
C          C       0.25100   0.17490   0.84830
C          C       0.27450   0.13400   0.77660
C          C       0.27600   0.16860   0.71200
C          C       0.25380   0.24510   0.71750
C          C       0.22760   0.28540   0.78760
C          C       0.22540   0.25080   0.85220
C          C       0.26020   0.28570   0.65090
C          C       0.18940   0.00660   0.85960
C          C       0.16880   0.93040   0.86340
H          H       0.46090   0.79140   0.33720
H          H       0.45650   0.89970   0.27890
H          H       0.42050   0.81240   0.02260
H          H       0.38600   0.81870   0.89410
H          H       0.39800   0.68330   0.67550
H          H       0.46290   0.78690   0.78090
H          H       0.29140   0.92980   0.71120
H          H       0.22730   0.82650   0.60610
H          H       0.43290   0.01220   0.74820
H          H       0.46000   0.22800   0.91820
H          H       0.45780   0.33650   0.86010
H          H       0.45140   0.44460   0.73080
H          H       0.10200   0.31670   0.32450
H          H       0.03710   0.21310   0.21910
H          H       0.20860   0.07020   0.28880
H          H       0.27270   0.17350   0.39390
H          H       0.06710   0.98780   0.25180
H          H       0.03990   0.77200   0.08180
H          H       0.04220   0.66350   0.13990
H          H       0.04860   0.55540   0.26920
H          H       0.11390   0.52650   0.41530
H          H       0.03910   0.20860   0.66280
H          H       0.04350   0.10030   0.72110
H          H       0.07950   0.18760   0.97740
H          H       0.11400   0.18130   0.10590
H          H       0.28200   0.55070   0.37550
H          H       0.33240   0.49240   0.37560
H          H       0.21810   0.44930   0.62450
H          H       0.16770   0.50760   0.62440
H          H       0.13610   0.58470   0.47350
H          H       0.03190   0.37550   0.55070
H          H       0.08230   0.37560   0.49240
H          H       0.47730   0.60610   0.82650
H          H       0.46810   0.62450   0.44930
H          H       0.41760   0.62440   0.50760
H          H       0.14800   0.67550   0.68330
H          H       0.21290   0.78090   0.78690
H          H       0.04140   0.71120   0.92980
H          H       0.18290   0.74820   0.01220
H          H       0.21010   0.91820   0.22800
H          H       0.20780   0.86010   0.33650
H          H       0.28910   0.66280   0.20860
H          H       0.29350   0.72110   0.10030
H          H       0.32950   0.97740   0.18760
H          H       0.36400   0.10590   0.18130
H          H       0.20140   0.73080   0.44460
H          H       0.35200   0.32450   0.31670
H          H       0.28710   0.21910   0.21310
H          H       0.45860   0.28880   0.07020
H          H       0.31710   0.25180   0.98780
H          H       0.29000   0.08180   0.77200
H          H       0.29220   0.13990   0.66350
H          H       0.21090   0.33720   0.79140
H          H       0.20650   0.27890   0.89970
H          H       0.17050   0.02260   0.81240
H          H       0.13600   0.89410   0.81870
H          H       0.29860   0.26920   0.55540
H          H       0.02270   0.39390   0.17350
H          H       0.36390   0.41530   0.52650
H          H       0.38610   0.47350   0.58470
Mg         Mg      0.25000   0.50000   0.50000
Mg         Mg      0.00000   0.50000   0.50000
O          O       0.49190   0.65260   0.35140
O          O       0.18950   0.68400   0.52760
O          O       0.30110   0.61520   0.54960
O          O       0.45910   0.41060   0.75790
O          O       0.31050   0.31600   0.47240
O          O       0.19890   0.38480   0.45040
O          O       0.04090   0.58940   0.24220
O          O       0.12500   0.53530   0.46470
O          O       0.00810   0.34740   0.64860
O          O       0.28630   0.50910   0.39100
O          O       0.37500   0.46470   0.53530
O          O       0.21370   0.49090   0.60900
O          O       0.44890   0.45040   0.38480
O          O       0.03630   0.39100   0.50910
O          O       0.43950   0.52760   0.68400
O          O       0.46370   0.60900   0.49090
O          O       0.05110   0.54960   0.61520
O          O       0.25810   0.64860   0.34740
O          O       0.20910   0.75780   0.41060
O          O       0.24190   0.35140   0.65260
O          O       0.29090   0.24220   0.58940
O          O       0.06050   0.47240   0.31600
C          C       0.98920   0.92510   0.06430
C          C       0.97760   0.78760   0.28540
C          C       0.97540   0.85220   0.25080
C          C       0.93940   0.85960   0.00660
C          C       0.91880   0.86340   0.93040
C          C       0.76260   0.67720   0.56460
C          C       0.80630   0.74450   0.63020
C          C       0.87620   0.73350   0.68270
C          C       0.91490   0.79520   0.74580
C          C       0.88360   0.86940   0.75800
C          C       0.81330   0.87980   0.70440
C          C       0.77510   0.81820   0.64160
C          C       0.92600   0.93750   0.82250
C          C       0.94520   0.93340   0.90260
C          C       0.98890   0.00210   0.95950
C          C       0.98730   0.07850   0.85590
C          C       0.94690   0.00970   0.80190
C          C       0.99900   0.15170   0.82510
C          C       0.97550   0.22340   0.86600
C          C       0.97400   0.28800   0.83140
C          C       0.99630   0.28250   0.75490
C          C       0.98980   0.34910   0.71430
C          C       0.73740   0.32280   0.43540
C          C       0.69370   0.25550   0.36980
C          C       0.62380   0.26650   0.31730
C          C       0.58510   0.20480   0.25420
C          C       0.61640   0.13060   0.24200
C          C       0.68680   0.12020   0.29560
C          C       0.72490   0.18180   0.35840
C          C       0.57400   0.06250   0.17750
C          C       0.55480   0.06660   0.09740
C          C       0.51110   0.99790   0.04050
C          C       0.51270   0.92150   0.14410
C          C       0.55310   0.99030   0.19810
C          C       0.50100   0.84830   0.17490
C          C       0.52460   0.77660   0.13400
C          C       0.52600   0.71200   0.16860
C          C       0.50370   0.71750   0.24510
C          C       0.51020   0.65090   0.28570
C          C       0.51080   0.07490   0.93570
C          C       0.52240   0.21240   0.71460
C          C       0.52460   0.14780   0.74920
C          C       0.56060   0.14040   0.99340
C          C       0.58120   0.13660   0.06960
C          C       0.51260   0.56460   0.67720
C          C       0.55630   0.63020   0.74440
C          C       0.62620   0.68270   0.73350
C          C       0.66490   0.74580   0.79520
C          C       0.63360   0.75800   0.86940
C          C       0.56330   0.70440   0.87980
C          C       0.52510   0.64160   0.81820
C          C       0.67600   0.82250   0.93750
C          C       0.69520   0.90260   0.93340
C          C       0.73890   0.95950   0.00210
C          C       0.76080   0.93570   0.07490
C          C       0.73730   0.85590   0.07850
C          C       0.69690   0.80190   0.00970
C          C       0.74900   0.82510   0.15170
C          C       0.72540   0.86600   0.22340
C          C       0.72400   0.83140   0.28800
C          C       0.74630   0.75490   0.28250
C          C       0.77240   0.71460   0.21240
C          C       0.77460   0.74920   0.14780
C          C       0.73980   0.71430   0.34910
C          C       0.81060   0.99340   0.14040
C          C       0.83120   0.06960   0.13660
C          C       0.98740   0.43540   0.32280
C          C       0.94370   0.36970   0.25550
C          C       0.87370   0.31730   0.26650
C          C       0.83510   0.25420   0.20480
C          C       0.86640   0.24200   0.13060
C          C       0.93670   0.29560   0.12020
C          C       0.97490   0.35840   0.18180
C          C       0.82400   0.17750   0.06250
C          C       0.80480   0.09740   0.06660
C          C       0.76110   0.04050   0.99790
C          C       0.73920   0.06430   0.92510
C          C       0.76270   0.14410   0.92150
C          C       0.80310   0.19810   0.99030
C          C       0.75100   0.17490   0.84830
C          C       0.77450   0.13400   0.77660
C          C       0.77600   0.16860   0.71200
C          C       0.75380   0.24510   0.71750
C          C       0.72760   0.28540   0.78760
C          C       0.72540   0.25080   0.85220
C          C       0.76020   0.28570   0.65090
C          C       0.68940   0.00660   0.85960
C          C       0.66880   0.93040   0.86340
H          H       0.96090   0.79140   0.33720
H          H       0.95650   0.89970   0.27890
H          H       0.92050   0.81240   0.02260
H          H       0.88600   0.81870   0.89410
H          H       0.89800   0.68330   0.67550
H          H       0.96290   0.78690   0.78090
H          H       0.79140   0.92980   0.71120
H          H       0.72730   0.82650   0.60610
H          H       0.93290   0.01220   0.74820
H          H       0.96000   0.22800   0.91820
H          H       0.95780   0.33650   0.86010
H          H       0.95140   0.44460   0.73080
H          H       0.60200   0.31670   0.32450
H          H       0.53710   0.21310   0.21910
H          H       0.70860   0.07020   0.28880
H          H       0.77270   0.17350   0.39390
H          H       0.56710   0.98780   0.25180
H          H       0.53990   0.77200   0.08180
H          H       0.54220   0.66350   0.13990
H          H       0.54860   0.55540   0.26920
H          H       0.61390   0.52650   0.41530
H          H       0.53910   0.20860   0.66280
H          H       0.54350   0.10030   0.72110
H          H       0.57950   0.18760   0.97740
H          H       0.61400   0.18130   0.10590
H          H       0.78200   0.55070   0.37550
H          H       0.83240   0.49240   0.37560
H          H       0.71810   0.44930   0.62450
H          H       0.66770   0.50760   0.62440
H          H       0.63610   0.58470   0.47350
H          H       0.53190   0.37550   0.55070
H          H       0.58230   0.37560   0.49240
H          H       0.97730   0.60610   0.82650
H          H       0.96810   0.62450   0.44930
H          H       0.91760   0.62440   0.50760
H          H       0.64800   0.67550   0.68330
H          H       0.71290   0.78090   0.78690
H          H       0.54140   0.71120   0.92980
H          H       0.68290   0.74820   0.01220
H          H       0.71010   0.91820   0.22800
H          H       0.70780   0.86010   0.33650
H          H       0.78910   0.66280   0.20860
H          H       0.79350   0.72110   0.10030
H          H       0.82950   0.97740   0.18760
H          H       0.86400   0.10590   0.18130
H          H       0.70140   0.73080   0.44460
H          H       0.85200   0.32450   0.31670
H          H       0.78710   0.21910   0.21310
H          H       0.95860   0.28880   0.07020
H          H       0.81710   0.25180   0.98780
H          H       0.79000   0.08180   0.77200
H          H       0.79220   0.13990   0.66350
H          H       0.71090   0.33720   0.79140
H          H       0.70650   0.27890   0.89970
H          H       0.67050   0.02260   0.81240
H          H       0.63600   0.89410   0.81870
H          H       0.79860   0.26920   0.55540
H          H       0.52270   0.39390   0.17350
H          H       0.86390   0.41530   0.52650
H          H       0.88610   0.47350   0.58470
Mg         Mg      0.75000   0.50000   0.50000
Mg         Mg      0.50000   0.50000   0.50000
O          O       0.99190   0.65260   0.35140
O          O       0.68950   0.68400   0.52760
O          O       0.80110   0.61520   0.54960
O          O       0.95910   0.41060   0.75790
O          O       0.81050   0.31600   0.47240
O          O       0.69890   0.38480   0.45040
O          O       0.54090   0.58940   0.24220
O          O       0.62500   0.53530   0.46470
O          O       0.50810   0.34740   0.64860
O          O       0.78630   0.50910   0.39100
O          O       0.87500   0.46470   0.53530
O          O       0.71370   0.49090   0.60900
O          O       0.94890   0.45040   0.38480
O          O       0.53630   0.39100   0.50910
O          O       0.93950   0.52760   0.68400
O          O       0.96370   0.60900   0.49090
O          O       0.55110   0.54960   0.61520
O          O       0.75810   0.64860   0.34740
O          O       0.70910   0.75780   0.41060
O          O       0.74190   0.35140   0.65260
O          O       0.79090   0.24220   0.58940
O          O       0.56050   0.47240   0.31600
