data_crystal

_cell_length_a    10.21870
_cell_length_b    11.51760
_cell_length_c    16.31270
_cell_angle_alpha 82.71000
_cell_angle_beta  75.91000
_cell_angle_gamma 77.54000

_symmetry_space_group_name_Hall 'P 1'
_symmetry_space_group_name_H-M  'P 1'

loop_
_symmetry_equiv_pos_as_xyz
 'x,y,z'

loop_
_atom_site_label
_atom_site_type_symbol
_atom_site_fract_x
_atom_site_fract_y
_atom_site_fract_z
H          H       0.69360   0.93320   0.92230
H          H       0.18770   0.07980   0.12520
C          C       0.51430   0.91010   0.35030
C          C       0.53130   0.86720   0.26600
C          C       0.44370   0.91970   0.21180
H          H       0.37660   0.98640   0.22760
C          C       0.45520   0.87460   0.13580
C          C       0.55760   0.77510   0.11230
H          H       0.56380   0.74270   0.06180
C          C       0.64800   0.72480   0.16090
C          C       0.63360   0.77050   0.23900
H          H       0.69400   0.73530   0.27340
C          C       0.75990   0.61770   0.13700
C          C       0.84900   0.60960   0.05730
C          C       0.95320   0.50590   0.04090
C          C       0.96530   0.40910   0.10480
C          C       0.87610   0.42210   0.18500
C          C       0.77590   0.52350   0.19790
H          H       0.71530   0.52900   0.25060
C          C       0.88060   0.32630   0.25660
C          C       0.76400   0.28290   0.29600
H          H       0.68340   0.31250   0.27720
C          C       0.76330   0.19440   0.36450
C          C       0.88420   0.15270   0.39150
H          H       0.88710   0.09250   0.43520
C          C       0.00030   0.19870   0.35520
C          C       0.99690   0.28530   0.28740
H          H       0.07560   0.31610   0.26250
C          C       0.63320   0.15580   0.40510
C          C       0.12470   0.16440   0.39190
C          C       0.06530   0.30430   0.08480
H          H       0.07050   0.23980   0.12520
C          C       0.84720   0.70360   0.99170
H          H       0.78280   0.77370   0.00210
C          C       0.35760   0.92960   0.08290
Eu         Eu      0.33850   0.12980   0.47840
O          O       0.12920   0.19290   0.58700
O          O       0.29220   0.35140   0.49330
O          O       0.43050   0.00480   0.36690
O          O       0.58680   0.84960   0.39840
O          O       0.26830   0.01740   0.10020
O          O       0.37210   0.87860   0.01340
O          O       0.52400   0.21680   0.39300
O          O       0.63600   0.06210   0.45320
O          O       0.13730   0.07480   0.44220
O          O       0.21350   0.23050   0.37220
C          C       0.48570   0.08990   0.64970
C          C       0.46870   0.13280   0.73400
C          C       0.55630   0.08030   0.78820
H          H       0.62340   0.01360   0.77240
C          C       0.54480   0.12540   0.86420
C          C       0.44240   0.22490   0.88770
H          H       0.43620   0.25730   0.93820
C          C       0.35200   0.27520   0.83910
C          C       0.36640   0.22950   0.76100
H          H       0.30600   0.26470   0.72660
C          C       0.24010   0.38230   0.86300
C          C       0.15100   0.39040   0.94270
C          C       0.04680   0.49410   0.95910
C          C       0.03470   0.59090   0.89520
C          C       0.12390   0.57790   0.81500
C          C       0.22410   0.47650   0.80210
H          H       0.28470   0.47100   0.74940
C          C       0.11940   0.67370   0.74340
C          C       0.23600   0.71710   0.70400
H          H       0.31660   0.68750   0.72280
C          C       0.23670   0.80560   0.63550
C          C       0.11580   0.84730   0.60850
H          H       0.11290   0.90750   0.56480
C          C       0.99970   0.80130   0.64480
C          C       0.00310   0.71470   0.71260
H          H       0.92440   0.68390   0.73750
C          C       0.36680   0.84420   0.59490
C          C       0.87530   0.83560   0.60810
C          C       0.93470   0.69570   0.91520
H          H       0.92950   0.76020   0.87480
C          C       0.15280   0.29640   0.00830
H          H       0.21720   0.22630   0.99790
C          C       0.64240   0.07040   0.91710
O          O       0.56950   0.99520   0.63310
O          O       0.41320   0.15040   0.60160
O          O       0.73170   0.98260   0.89980
O          O       0.62790   0.12140   0.98660
O          O       0.47600   0.78320   0.60700
O          O       0.36400   0.93790   0.54680
O          O       0.86270   0.92520   0.55780
O          O       0.78650   0.76950   0.62780
Eu         Eu      0.66150   0.87020   0.52160
O          O       0.87080   0.80710   0.41300
O          O       0.70780   0.64860   0.50670
H          H       0.36260   0.38630   0.45430
H          H       0.04980   0.19970   0.56380
H          H       0.12440   0.12650   0.64190
H          H       0.19160   0.39240   0.47930
H          H       0.74790   0.60660   0.55210
H          H       0.61070   0.62020   0.50920
H          H       0.92620   0.72210   0.41910
H          H       0.85990   0.83240   0.35400
