data_crystal

_cell_length_a    12.64000
_cell_length_b    21.53810
_cell_length_c    21.54880
_cell_angle_alpha 71.59000
_cell_angle_beta  81.57000
_cell_angle_gamma 81.56000

_symmetry_space_group_name_Hall 'P 1'
_symmetry_space_group_name_H-M  'P 1'

loop_
_symmetry_equiv_pos_as_xyz
 'x,y,z'

loop_
_atom_site_label
_atom_site_type_symbol
_atom_site_fract_x
_atom_site_fract_y
_atom_site_fract_z
C          C       0.22860   0.53250   0.26150
C          C       0.03970   0.49700   0.24060
C          C       0.04490   0.51510   0.29670
C          C       0.12780   0.49750   0.19530
C          C       0.22300   0.51570   0.20550
C          C       0.09140   0.80030   0.44650
C          C       0.25980   0.44220   0.41260
C          C       0.12230   0.47740   0.13500
C          C       0.20820   0.50480   0.41800
C          C       0.13210   0.74110   0.43430
C          C       0.13940   0.53290   0.30770
C          C       0.43740   0.87260   0.48320
C          C       0.41430   0.76770   0.46290
C          C       0.09980   0.60790   0.37810
C          C       0.48110   0.81250   0.46290
C          C       0.45500   0.70730   0.45210
C          C       0.06500   0.69290   0.43850
C          C       0.14840   0.54870   0.36970
C          C       0.11330   0.62690   0.43250
C          C       0.21940   0.52220   0.47540
C          C       0.18480   0.59960   0.54020
C          C       0.17130   0.58440   0.48160
C          C       0.28060   0.47780   0.52460
C          C       0.31520   0.40040   0.45980
C          C       0.32870   0.41560   0.51840
C          C       0.27140   0.46750   0.73850
C          C       0.46030   0.50300   0.75940
C          C       0.45510   0.48490   0.70330
C          C       0.37220   0.50250   0.80470
C          C       0.27700   0.48430   0.79450
C          C       0.40860   0.19970   0.55350
C          C       0.24020   0.55780   0.58740
C          C       0.37770   0.52240   0.86510
C          C       0.29180   0.49520   0.58200
C          C       0.36790   0.25890   0.56570
C          C       0.36060   0.46710   0.69230
C          C       0.06260   0.12740   0.51680
C          C       0.08570   0.23230   0.53710
C          C       0.40020   0.39210   0.62190
C          C       0.01890   0.18750   0.53710
C          C       0.04500   0.29270   0.54790
C          C       0.43500   0.30710   0.56150
C          C       0.35160   0.45130   0.63030
C          C       0.38670   0.37310   0.56750
C          C       0.25470   0.90030   0.95980
C          C       0.12550   0.96750   0.23850
C          C       0.40850   0.00300   0.25940
C          C       0.45080   0.98490   0.20330
C          C       0.47430   0.00250   0.30470
C          C       0.08350   0.98430   0.29450
C          C       0.21480   0.69970   0.05350
C          C       0.18720   0.05780   0.08740
C          C       0.42850   0.02260   0.36500
C          C       0.16950   0.99520   0.08200
C          C       0.21970   0.75890   0.06570
C          C       0.05970   0.96710   0.19230
C          C       0.11530   0.62740   0.01680
C          C       0.02950   0.73230   0.03710
C          C       0.09270   0.89210   0.12190
C          C       0.11880   0.68750   0.03710
C          C       0.03460   0.79270   0.04790
C          C       0.13060   0.80710   0.06150
C          C       0.10750   0.95130   0.13030
C          C       0.14300   0.87310   0.06750
C          C       0.21810   0.97780   0.02460
C          C       0.20420   0.91560   0.01840
C          C       0.28190   0.02210   0.97540
C          C       0.29580   0.08430   0.98160
C          C       0.37450   0.03240   0.76150
C          C       0.09150   0.99700   0.74060
C          C       0.04920   0.01500   0.79670
C          C       0.02570   0.99750   0.69530
C          C       0.41650   0.01570   0.70550
C          C       0.28520   0.30020   0.94650
C          C       0.31280   0.94210   0.91260
C          C       0.07150   0.97740   0.63500
C          C       0.33050   0.00470   0.91800
C          C       0.28030   0.24100   0.93430
C          C       0.44030   0.03280   0.80770
C          C       0.38470   0.37250   0.98320
C          C       0.47050   0.26760   0.96290
C          C       0.40730   0.10780   0.87810
C          C       0.38120   0.31240   0.96290
C          C       0.46540   0.20720   0.95210
C          C       0.36940   0.19280   0.93850
C          C       0.39240   0.04860   0.86970
C          C       0.35700   0.12670   0.93260
C          C       0.24520   0.09960   0.04020
H          H       0.12610   0.82590   0.62130
H          H       0.10680   0.86530   0.54930
H          H       0.29460   0.54400   0.26860
H          H       0.47450   0.48430   0.23390
H          H       0.48300   0.51520   0.32760
H          H       0.28420   0.51670   0.17390
H          H       0.13830   0.83200   0.44360
H          H       0.25430   0.43040   0.37440
H          H       0.20720   0.73310   0.42290
H          H       0.33870   0.77780   0.47040
H          H       0.05610   0.63630   0.34610
H          H       0.40730   0.67640   0.45400
H          H       0.09470   0.09090   0.37410
H          H       0.15340   0.64070   0.54550
H          H       0.31150   0.87080   0.66760
H          H       0.40530   0.90910   0.62590
H          H       0.32210   0.02460   0.56120
H          H       0.34660   0.35930   0.45450
H          H       0.18850   0.12920   0.33240
H          H       0.37390   0.17410   0.37870
H          H       0.39320   0.13470   0.45070
H          H       0.17790   0.97540   0.43880
H          H       0.20540   0.45600   0.73140
H          H       0.02550   0.51570   0.76610
H          H       0.01700   0.48480   0.67240
H          H       0.21580   0.48330   0.82610
H          H       0.36170   0.16800   0.55640
H          H       0.24570   0.56960   0.62560
H          H       0.29280   0.26690   0.57710
H          H       0.16130   0.22220   0.52960
H          H       0.44390   0.36370   0.65390
H          H       0.09270   0.32360   0.54600
H          H       0.24650   0.85920   0.95450
H          H       0.08080   0.62920   0.83240
H          H       0.17280   0.59080   0.87410
H          H       0.11500   0.47530   0.93880
H          H       0.20080   0.95600   0.23140
H          H       0.33360   0.01570   0.26610
H          H       0.40440   0.98480   0.17240
H          H       0.12950   0.98330   0.32610
H          H       0.27600   0.66800   0.05640
H          H       0.15670   0.06960   0.12560
H          H       0.28510   0.76690   0.07710
H          H       0.46270   0.72220   0.02960
H          H       0.04720   0.86370   0.15390
H          H       0.47240   0.82360   0.04600
H          H       0.32720   0.40910   0.12590
H          H       0.29920   0.04400   0.76860
H          H       0.16640   0.98430   0.73390
H          H       0.09560   0.01510   0.82760
H          H       0.37050   0.01670   0.67390
H          H       0.22390   0.33190   0.94360
H          H       0.34330   0.93040   0.87440
H          H       0.21490   0.23300   0.92290
H          H       0.03730   0.27770   0.97040
H          H       0.45280   0.13620   0.84610
H          H       0.02760   0.17630   0.95400
H          H       0.25350   0.14070   0.04550
H          H       0.41920   0.37080   0.16760
H          H       0.15030   0.32590   0.12130
H          H       0.18590   0.36530   0.04930
H          H       0.38500   0.52460   0.06120
H          H       0.34970   0.67400   0.87870
H          H       0.31410   0.63460   0.95070
Ni         Ni      0.25000   0.50000   0.00000
Ni         Ni      0.00000   1.00000   0.50000
Ni         Ni      0.25370   0.93350   0.55190
Ni         Ni      0.24630   0.06650   0.44810
Ni         Ni      0.00360   0.43350   0.05190
Ni         Ni      0.49640   0.56640   0.94810
O          O       0.21170   0.46620   0.10200
O          O       0.03230   0.47180   0.12260
O          O       0.33680   0.88590   0.48840
O          O       0.00400   0.90430   0.49570
O          O       0.35480   0.87900   0.62460
O          O       0.33950   0.01260   0.52000
O          O       0.16320   0.85170   0.57950
O          O       0.16040   0.98740   0.48000
O          O       0.49580   0.03380   0.39800
O          O       0.00420   0.96620   0.60200
O          O       0.17050   0.97180   0.62260
O          O       0.49600   0.09570   0.50430
O          O       0.14520   0.12100   0.37540
O          O       0.33680   0.14830   0.42050
O          O       0.28830   0.53370   0.89800
O          O       0.46770   0.52810   0.87740
O          O       0.16320   0.11400   0.51160
O          O       0.32950   0.02820   0.37740
O          O       0.10670   0.62090   0.87540
O          O       0.10580   0.48730   0.98000
O          O       0.37880   0.64820   0.92050
O          O       0.29600   0.40420   0.99570
O          O       0.02400   0.61400   0.01160
O          O       0.20400   0.59570   0.00430
O          O       0.39420   0.51260   0.02000
O          O       0.47600   0.38580   0.98840
O          O       0.39330   0.37900   0.12460
O          O       0.12120   0.35170   0.07950
C          C       0.72860   0.53250   0.26150
C          C       0.53970   0.49700   0.24060
C          C       0.54490   0.51510   0.29670
C          C       0.62780   0.49750   0.19530
C          C       0.72300   0.51570   0.20550
C          C       0.59140   0.80030   0.44650
C          C       0.75980   0.44220   0.41260
C          C       0.62230   0.47740   0.13500
C          C       0.70820   0.50480   0.41800
C          C       0.63210   0.74110   0.43430
C          C       0.63940   0.53290   0.30770
C          C       0.93740   0.87260   0.48320
C          C       0.91430   0.76770   0.46290
C          C       0.59980   0.60790   0.37810
C          C       0.98110   0.81250   0.46290
C          C       0.95500   0.70730   0.45210
C          C       0.56500   0.69290   0.43850
C          C       0.64840   0.54870   0.36970
C          C       0.61330   0.62690   0.43250
C          C       0.71940   0.52220   0.47540
C          C       0.68480   0.59960   0.54020
C          C       0.67130   0.58440   0.48160
C          C       0.78060   0.47780   0.52460
C          C       0.81520   0.40040   0.45980
C          C       0.82870   0.41560   0.51840
C          C       0.77140   0.46750   0.73850
C          C       0.96030   0.50300   0.75940
C          C       0.95510   0.48490   0.70330
C          C       0.87220   0.50250   0.80470
C          C       0.77700   0.48430   0.79450
C          C       0.90860   0.19970   0.55350
C          C       0.74020   0.55780   0.58740
C          C       0.87770   0.52240   0.86510
C          C       0.79180   0.49520   0.58200
C          C       0.86790   0.25890   0.56570
C          C       0.86060   0.46710   0.69230
C          C       0.56260   0.12740   0.51680
C          C       0.58570   0.23230   0.53710
C          C       0.90020   0.39210   0.62190
C          C       0.51890   0.18750   0.53710
C          C       0.54500   0.29270   0.54790
C          C       0.93500   0.30710   0.56150
C          C       0.85160   0.45130   0.63030
C          C       0.88670   0.37310   0.56750
C          C       0.75470   0.90030   0.95980
C          C       0.62550   0.96750   0.23850
C          C       0.90850   0.00300   0.25940
C          C       0.95080   0.98490   0.20330
C          C       0.97430   0.00250   0.30470
C          C       0.58350   0.98430   0.29450
C          C       0.71480   0.69970   0.05350
C          C       0.68720   0.05780   0.08740
C          C       0.92850   0.02260   0.36500
C          C       0.66950   0.99520   0.08200
C          C       0.71970   0.75890   0.06570
C          C       0.55970   0.96710   0.19230
C          C       0.61530   0.62740   0.01680
C          C       0.52950   0.73230   0.03710
C          C       0.59270   0.89210   0.12190
C          C       0.61880   0.68750   0.03710
C          C       0.53460   0.79270   0.04790
C          C       0.63060   0.80710   0.06150
C          C       0.60750   0.95130   0.13030
C          C       0.64300   0.87310   0.06750
C          C       0.71810   0.97780   0.02460
C          C       0.70420   0.91560   0.01840
C          C       0.78190   0.02210   0.97540
C          C       0.79580   0.08430   0.98160
C          C       0.87450   0.03240   0.76150
C          C       0.59150   0.99700   0.74060
C          C       0.54920   0.01500   0.79670
C          C       0.52570   0.99750   0.69530
C          C       0.91650   0.01570   0.70550
C          C       0.78520   0.30020   0.94650
C          C       0.81280   0.94210   0.91260
C          C       0.57150   0.97740   0.63500
C          C       0.83050   0.00470   0.91800
C          C       0.78030   0.24100   0.93430
C          C       0.94030   0.03280   0.80770
C          C       0.88470   0.37250   0.98320
C          C       0.97050   0.26760   0.96290
C          C       0.90730   0.10780   0.87810
C          C       0.88120   0.31240   0.96290
C          C       0.96540   0.20720   0.95210
C          C       0.86940   0.19280   0.93850
C          C       0.89240   0.04860   0.86970
C          C       0.85700   0.12670   0.93260
C          C       0.74520   0.09960   0.04020
H          H       0.62610   0.82590   0.62130
H          H       0.60680   0.86530   0.54930
H          H       0.79460   0.54400   0.26860
H          H       0.97450   0.48430   0.23390
H          H       0.98300   0.51520   0.32760
H          H       0.78420   0.51670   0.17390
H          H       0.63830   0.83200   0.44360
H          H       0.75430   0.43040   0.37440
H          H       0.70720   0.73310   0.42290
H          H       0.83870   0.77780   0.47040
H          H       0.55610   0.63630   0.34610
H          H       0.90730   0.67640   0.45400
H          H       0.59470   0.09090   0.37410
H          H       0.65340   0.64070   0.54550
H          H       0.81150   0.87080   0.66760
H          H       0.90530   0.90910   0.62590
H          H       0.82210   0.02460   0.56120
H          H       0.84660   0.35930   0.45450
H          H       0.68850   0.12920   0.33240
H          H       0.87390   0.17410   0.37870
H          H       0.89320   0.13470   0.45070
H          H       0.67790   0.97540   0.43880
H          H       0.70540   0.45600   0.73140
H          H       0.52550   0.51570   0.76610
H          H       0.51700   0.48480   0.67240
H          H       0.71580   0.48330   0.82610
H          H       0.86170   0.16800   0.55640
H          H       0.74570   0.56960   0.62560
H          H       0.79280   0.26690   0.57710
H          H       0.66130   0.22220   0.52960
H          H       0.94390   0.36370   0.65390
H          H       0.59270   0.32360   0.54600
H          H       0.74650   0.85920   0.95450
H          H       0.58080   0.62920   0.83240
H          H       0.67280   0.59080   0.87410
H          H       0.61500   0.47530   0.93880
H          H       0.70080   0.95600   0.23140
H          H       0.83360   0.01570   0.26610
H          H       0.90440   0.98480   0.17240
H          H       0.62950   0.98330   0.32610
H          H       0.77600   0.66800   0.05640
H          H       0.65670   0.06960   0.12560
H          H       0.78510   0.76690   0.07710
H          H       0.96270   0.72220   0.02960
H          H       0.54720   0.86370   0.15390
H          H       0.97240   0.82360   0.04600
H          H       0.82720   0.40910   0.12590
H          H       0.79920   0.04400   0.76860
H          H       0.66640   0.98430   0.73390
H          H       0.59560   0.01510   0.82760
H          H       0.87050   0.01670   0.67390
H          H       0.72390   0.33190   0.94360
H          H       0.84330   0.93040   0.87440
H          H       0.71490   0.23300   0.92290
H          H       0.53730   0.27770   0.97040
H          H       0.95280   0.13620   0.84610
H          H       0.52760   0.17630   0.95400
H          H       0.75350   0.14070   0.04550
H          H       0.91920   0.37080   0.16760
H          H       0.65030   0.32590   0.12130
H          H       0.68590   0.36530   0.04930
H          H       0.88500   0.52460   0.06120
H          H       0.84970   0.67400   0.87870
H          H       0.81410   0.63460   0.95070
Ni         Ni      0.75000   0.50000   0.00000
Ni         Ni      0.50000   1.00000   0.50000
Ni         Ni      0.75370   0.93350   0.55190
Ni         Ni      0.74630   0.06650   0.44810
Ni         Ni      0.50360   0.43350   0.05190
Ni         Ni      0.99640   0.56640   0.94810
O          O       0.71170   0.46620   0.10200
O          O       0.53230   0.47180   0.12260
O          O       0.83680   0.88590   0.48840
O          O       0.50400   0.90430   0.49570
O          O       0.85480   0.87900   0.62460
O          O       0.83950   0.01260   0.52000
O          O       0.66320   0.85170   0.57950
O          O       0.66040   0.98740   0.48000
O          O       0.99580   0.03380   0.39800
O          O       0.50420   0.96620   0.60200
O          O       0.67050   0.97180   0.62260
O          O       0.99600   0.09570   0.50430
O          O       0.64520   0.12100   0.37540
O          O       0.83680   0.14830   0.42050
O          O       0.78830   0.53370   0.89800
O          O       0.96770   0.52810   0.87740
O          O       0.66320   0.11400   0.51160
O          O       0.82950   0.02820   0.37740
O          O       0.60670   0.62090   0.87540
O          O       0.60580   0.48730   0.98000
O          O       0.87880   0.64820   0.92050
O          O       0.79600   0.40420   0.99570
O          O       0.52400   0.61400   0.01160
O          O       0.70400   0.59570   0.00430
O          O       0.89420   0.51260   0.02000
O          O       0.97600   0.38580   0.98840
O          O       0.89330   0.37900   0.12460
O          O       0.62120   0.35170   0.07950
