data_crystal

_cell_length_a    15.69180
_cell_length_b    15.69180
_cell_length_c    9.46000
_cell_angle_alpha 90.00000
_cell_angle_beta  90.00000
_cell_angle_gamma 90.00000

_symmetry_space_group_name_Hall 'P 1'
_symmetry_space_group_name_H-M  'P 1'

loop_
_symmetry_equiv_pos_as_xyz
 'x,y,z'

loop_
_atom_site_label
_atom_site_type_symbol
_atom_site_fract_x
_atom_site_fract_y
_atom_site_fract_z
N          N       0.00000   0.00000   0.63990
C          C       0.00000   0.08710   0.58700
H          H       0.05110   0.11740   0.62230
C          C       0.00000   0.08710   0.41300
H          H       0.05110   0.11740   0.37770
H          H       0.11740   0.94890   0.62230
H          H       0.11740   0.94890   0.37770
H          H       0.05110   0.88260   0.62230
H          H       0.94890   0.11740   0.37770
H          H       0.94890   0.11740   0.62230
H          H       0.94890   0.88260   0.62230
N          N       0.00000   0.00000   0.36010
H          H       0.88260   0.94890   0.37770
H          H       0.94890   0.88260   0.37770
H          H       0.88260   0.94890   0.62230
C          C       0.58230   0.41020   0.00160
C          C       0.50100   0.45530   0.00020
C          C       0.30280   0.75400   0.12600
H          H       0.32530   0.73490   0.21380
C          C       0.34230   0.72820   0.99990
C          C       0.42180   0.67530   0.00410
C          C       0.69720   0.24600   0.12600
H          H       0.67470   0.26510   0.21380
C          C       0.65770   0.27180   0.99990
C          C       0.57800   0.32360   0.00410
C          C       0.34360   0.45630   0.00020
C          C       0.30280   0.24600   0.12600
H          H       0.32530   0.26510   0.21380
C          C       0.69720   0.75400   0.12600
H          H       0.67470   0.73490   0.21380
C          C       0.69710   0.75400   0.87400
H          H       0.67470   0.73490   0.78620
C          C       0.65770   0.72820   0.99990
C          C       0.57920   0.67460   0.00390
C          C       0.50000   0.71670   0.00000
H          H       0.50000   0.77720   0.00000
C          C       0.58300   0.58610   0.00140
C          C       0.30290   0.24600   0.87400
H          H       0.32530   0.26510   0.78620
C          C       0.34230   0.27180   0.99990
C          C       0.42270   0.32370   0.00400
C          C       0.50000   0.28330   0.00000
H          H       0.50000   0.22280   0.00000
C          C       0.42150   0.41160   0.00140
C          C       0.34060   0.54260   0.00020
H          H       0.27650   0.56490   0.00050
C          C       0.41810   0.58720   0.00150
C          C       0.50170   0.54380   0.00020
C          C       0.66050   0.45280   0.00050
C          C       0.66200   0.53800   0.00010
H          H       0.72540   0.55760   0.00020
C          C       0.69710   0.24600   0.87400
H          H       0.67470   0.26510   0.78620
C          C       0.30290   0.75400   0.87400
H          H       0.32530   0.73490   0.78620
C          C       0.11450   0.11450   0.00000
C          C       0.19480   0.16620   0.00000
O          O       0.08950   0.08950   0.11340
Zn         Zn      0.00000   0.00000   0.15120
O          O       0.08950   0.08950   0.88660
Zn         Zn      0.00000   0.00000   0.84880
C          C       0.11450   0.88550   0.00000
O          O       0.08950   0.91050   0.11340
C          C       0.19480   0.83380   0.99990
O          O       0.08950   0.91050   0.88660
C          C       0.88550   0.11450   0.00000
O          O       0.91050   0.08950   0.11340
C          C       0.80520   0.16620   0.99990
O          O       0.91050   0.08950   0.88660
C          C       0.88550   0.88550   0.00000
C          C       0.80520   0.83380   0.99990
O          O       0.91050   0.91050   0.11340
O          O       0.91050   0.91050   0.88660
C          C       0.23210   0.19330   0.87490
H          H       0.20840   0.17520   0.78740
C          C       0.76790   0.80670   0.87490
H          H       0.79160   0.82480   0.78740
C          C       0.76790   0.19330   0.87490
H          H       0.79160   0.17520   0.78740
C          C       0.23210   0.80670   0.87490
H          H       0.20840   0.82480   0.78740
C          C       0.76780   0.19330   0.12510
H          H       0.79160   0.17520   0.21270
C          C       0.23220   0.80670   0.12510
H          H       0.20840   0.82480   0.21270
C          C       0.23220   0.19340   0.12510
H          H       0.20840   0.17520   0.21270
C          C       0.76780   0.80670   0.12510
H          H       0.79160   0.82480   0.21270
C          C       0.93820   0.93820   0.58600
C          C       0.06180   0.93820   0.58600
C          C       0.06180   0.93820   0.41400
H          H       0.04720   0.88060   0.37880
C          C       0.93820   0.93820   0.41400
H          H       0.72300   0.42340   0.00120
H          H       0.28200   0.42620   0.00090
