data_crystal

_cell_length_a    14.48600
_cell_length_b    21.82400
_cell_length_c    24.04100
_cell_angle_alpha 90.00000
_cell_angle_beta  90.00000
_cell_angle_gamma 90.00000

_symmetry_space_group_name_Hall 'P 1'
_symmetry_space_group_name_H-M  'P 1'

loop_
_symmetry_equiv_pos_as_xyz
 'x,y,z'

loop_
_atom_site_label
_atom_site_type_symbol
_atom_site_fract_x
_atom_site_fract_y
_atom_site_fract_z
C          C       0.42960   0.12590   0.57490
C          C       0.52610   0.12540   0.57370
C          C       0.57920   0.12530   0.52290
H          H       0.54810   0.12550   0.48900
C          C       0.57520   0.12500   0.62500
C          C       0.38140   0.12500   0.62500
H          H       0.31720   0.12500   0.62500
C          C       0.57570   0.02440   0.41720
H          H       0.54470   0.01800   0.45060
C          C       0.67010   0.02390   0.41700
H          H       0.70120   0.01640   0.45010
C          C       0.57530   0.03970   0.32370
H          H       0.54420   0.04380   0.29010
C          C       0.67050   0.03970   0.32400
H          H       0.70170   0.04410   0.29040
N          N       0.52650   0.03400   0.37090
N          N       0.71940   0.03370   0.37070
O          O       0.39020   0.18090   0.48190
O          O       0.38850   0.07030   0.48230
O          O       0.26920   0.12690   0.52820
S          S       0.36590   0.12630   0.51130
Ag         Ag      0.37500   0.04090   0.37500
Ag         Ag      0.87500   0.03300   0.37500
O          O       0.87710   0.92990   0.33030
H          H       0.82300   0.90500   0.32400
H          H       0.91700   0.89600   0.33900
C          C       0.82040   0.12410   0.57490
C          C       0.82040   0.12590   0.67500
C          C       0.42960   0.12410   0.67500
C          C       0.72390   0.12460   0.57370
C          C       0.72390   0.12540   0.67630
C          C       0.52610   0.12460   0.67630
C          C       0.67080   0.12480   0.52290
C          C       0.67080   0.12530   0.72710
C          C       0.57920   0.12480   0.72710
H          H       0.54810   0.12450   0.76100
H          H       0.70190   0.12550   0.76100
H          H       0.70190   0.12450   0.48900
C          C       0.67480   0.12500   0.62500
C          C       0.86860   0.12500   0.62500
H          H       0.93280   0.12500   0.62500
C          C       0.17430   0.02440   0.33280
C          C       0.57570   0.22560   0.83280
H          H       0.20530   0.01800   0.29940
H          H       0.54470   0.23200   0.79940
C          C       0.07990   0.02390   0.33300
C          C       0.67010   0.22610   0.83300
H          H       0.04880   0.01640   0.29990
H          H       0.70120   0.23360   0.79990
C          C       0.17470   0.03970   0.42620
C          C       0.57530   0.21030   0.92620
H          H       0.20580   0.04380   0.45990
H          H       0.54420   0.20620   0.95990
C          C       0.07950   0.03970   0.42600
C          C       0.67050   0.21030   0.92600
H          H       0.04830   0.04410   0.45960
H          H       0.70170   0.20590   0.95960
N          N       0.22350   0.03400   0.37910
N          N       0.52650   0.21600   0.87910
N          N       0.22350   0.21600   0.87090
N          N       0.03060   0.03370   0.37930
N          N       0.71940   0.21630   0.87930
O          O       0.39020   0.06920   0.76810
O          O       0.85980   0.18090   0.76810
O          O       0.85980   0.06920   0.48190
O          O      -0.10980   0.06920   0.26800
O          O       0.38850   0.17970   0.76770
O          O       0.86160   0.07030   0.76770
O          O       0.86160   0.17970   0.48230
O          O       0.36160   0.07030   0.26770
O          O       0.36160   0.17970  -0.01770
O          O       0.26920   0.12320   0.72180
O          O       0.98090   0.12690   0.72180
O          O       0.98090   0.12320   0.52820
S          S       0.36590   0.12370   0.73870
S          S       0.88410   0.12630   0.73870
S          S       0.88410   0.12370   0.51130
Ag         Ag      0.37500   0.20910   0.87500
Ag         Ag      0.87500   0.04090   0.87500
Ag         Ag      0.87500   0.20910   0.37500
Ag         Ag      0.37500   0.21700   0.37500
Ag         Ag      0.37500   0.03300   0.87500
Ag         Ag      0.87500   0.21700   0.87500
O          O       0.87290   0.92990   0.41970
H          H       0.92700   0.90500   0.42600
H          H       0.83300   0.89600   0.41100
O          O       0.87710   0.42990   0.83030
H          H       0.82300   0.40500   0.82400
H          H       0.91700   0.39600   0.83900
C          C       0.86860   0.62500   0.12500
C          C       0.17430   0.52440   0.83280
H          H       0.20530   0.51800   0.79940
C          C       0.07990   0.52390   0.83300
H          H       0.04880   0.51640   0.79990
C          C       0.17470   0.53970   0.92620
H          H       0.20580   0.54380   0.95990
C          C       0.07950   0.53970   0.92600
H          H       0.04830   0.54410   0.95960
N          N       0.03060   0.53370   0.87930
O          O       0.87290   0.42990   0.91970
H          H       0.92700   0.40500   0.92600
H          H       0.83300   0.39600   0.91100
O          O       0.37710   0.92990   0.83030
H          H       0.32300   0.90500   0.82400
H          H       0.41700   0.89600   0.83900
C          C       0.67430   0.02440   0.83280
H          H       0.70530   0.01800   0.79940
C          C       0.57990   0.02390   0.83300
H          H       0.54880   0.01640   0.79990
C          C       0.67470   0.03970   0.92620
H          H       0.70580   0.04380   0.95990
C          C       0.57950   0.03970   0.92600
H          H       0.54830   0.04410   0.95960
N          N       0.53060   0.03370   0.87930
O          O       0.37290   0.92990   0.91970
H          H       0.42700   0.90500   0.92600
H          H       0.33300   0.89600   0.91100
C          C      -0.07040   0.62590   0.57490
C          C       0.02610   0.62540   0.57370
C          C       0.07920   0.62530   0.52290
H          H       0.04810   0.62550   0.48900
C          C       0.07520   0.62500   0.62500
C          C      -0.11860   0.62500   0.62500
H          H      -0.18280   0.62500   0.62500
C          C       0.07570   0.52440   0.41720
H          H       0.04470   0.51800   0.45060
C          C       0.17010   0.52390   0.41700
H          H       0.20120   0.51640   0.45010
C          C       0.07530   0.53970   0.32370
H          H       0.04420   0.54380   0.29010
C          C       0.17050   0.53970   0.32400
H          H       0.20170   0.54410   0.29040
N          N       0.02650   0.53400   0.37090
N          N       0.21940   0.53370   0.37070
O          O      -0.10980   0.68090   0.48190
O          O      -0.11150   0.57030   0.48230
O          O      -0.23080   0.62690   0.52820
S          S      -0.13410   0.62630   0.51130
Ag         Ag      0.87500   0.54090   0.37500
Ag         Ag      0.37500   0.53300   0.37500
O          O       0.37710   0.42990   0.33030
H          H       0.32300   0.40500   0.32400
H          H       0.41700   0.39600   0.33900
C          C       0.32040   0.62410   0.57490
C          C       0.32040   0.62590   0.67500
C          C      -0.07040   0.62410   0.67500
C          C       0.22390   0.62460   0.57370
C          C       0.22390   0.62540   0.67630
C          C       0.02610   0.62460   0.67630
C          C       0.17080   0.62480   0.52290
C          C       0.17080   0.62530   0.72710
C          C       0.07920   0.62480   0.72710
H          H       0.04810   0.62450   0.76100
H          H       0.20190   0.62550   0.76100
H          H       0.20190   0.62450   0.48900
C          C       0.17480   0.62500   0.62500
C          C       0.36860   0.62500   0.62500
H          H       0.43280   0.62500   0.62500
C          C       0.67430   0.52440   0.33280
C          C       0.07570   0.72560   0.83280
H          H       0.70530   0.51800   0.29940
H          H       0.04470   0.73200   0.79940
C          C       0.57990   0.52390   0.33300
C          C       0.17010   0.72610   0.83300
H          H       0.54880   0.51640   0.29990
H          H       0.20120   0.73360   0.79990
C          C       0.67470   0.53970   0.42620
C          C       0.07530   0.71030   0.92620
H          H       0.70580   0.54380   0.45990
H          H       0.04420   0.70620   0.95990
C          C       0.57950   0.53970   0.42600
C          C       0.17050   0.71030   0.92600
H          H       0.54830   0.54410   0.45960
H          H       0.20170   0.70590   0.95960
N          N       0.72350   0.53400   0.37910
N          N       0.02650   0.71600   0.87910
N          N       0.53060   0.53370   0.37930
N          N       0.21940   0.71630   0.87930
O          O      -0.10980   0.56920   0.76810
O          O       0.35980   0.68090   0.76810
O          O       0.35980   0.56920   0.48190
O          O       0.39020   0.56920   0.26800
O          O      -0.11150   0.67970   0.76770
O          O       0.36160   0.57030   0.76770
O          O       0.36160   0.67970   0.48230
O          O       0.86160   0.57030   0.26770
O          O      -0.23080   0.62320   0.72180
O          O       0.48090   0.62690   0.72180
O          O       0.48090   0.62320   0.52820
S          S      -0.13410   0.62370   0.73870
S          S       0.38410   0.62630   0.73870
S          S       0.38410   0.62370   0.51130
Ag         Ag      0.87500   0.70910   0.87500
Ag         Ag      0.37500   0.54090   0.87500
Ag         Ag      0.37500   0.70910   0.37500
Ag         Ag      0.87500   0.71700   0.37500
Ag         Ag      0.87500   0.53300   0.87500
Ag         Ag      0.37500   0.71700   0.87500
O          O       0.37290   0.42990   0.41970
H          H       0.42700   0.40500   0.42600
H          H       0.33300   0.39600   0.41100
C          C       0.82040   0.62410   0.07490
C          C       0.72390   0.62460   0.07370
C          C       0.67080   0.62480   0.02290
H          H       0.70190   0.62450  -0.01100
C          C       0.67480   0.62500   0.12500
H          H       0.93280   0.62500   0.12500
C          C       0.67430   0.72560   0.91720
H          H       0.70530   0.73200   0.95060
C          C       0.57990   0.72610   0.91700
H          H       0.54880   0.73360   0.95010
C          C       0.67470   0.71030   0.82370
H          H       0.54830   0.70590   0.79040
N          N       0.72350   0.71600   0.87090
O          O       0.85980   0.56910  -0.01810
O          O       0.86160   0.67970  -0.01770
O          O       0.98090   0.62320   0.02820
O          O       0.37290   0.82010   0.83030
H          H       0.42700   0.84500   0.82400
H          H       0.33300   0.85400   0.83900
C          C       0.42960   0.62590   0.07490
C          C       0.42960   0.62410   0.17500
O          O       0.37710   0.82010   0.91970
H          H       0.32300   0.84500   0.92600
H          H       0.41700   0.85400   0.91100
C          C       0.57570   0.72560   0.33280
H          H       0.54470   0.73200   0.29940
C          C       0.67010   0.72610   0.33300
H          H       0.70120   0.73360   0.29990
C          C       0.57530   0.71030   0.42620
H          H       0.54420   0.70620   0.45990
C          C       0.67050   0.71030   0.42600
H          H       0.70170   0.70590   0.45960
N          N       0.52650   0.71600   0.37910
N          N       0.71940   0.71630   0.37930
O          O       0.87710   0.82010   0.41970
H          H       0.82300   0.84500   0.42600
H          H       0.91700   0.85400   0.41100
C          C       0.17430   0.72560   0.41720
C          C       0.57570   0.52440   0.91720
H          H       0.20530   0.73200   0.45060
H          H       0.54470   0.51800   0.95060
C          C       0.07990   0.72610   0.41700
C          C       0.67010   0.52390   0.91700
H          H       0.04880   0.73360   0.45010
H          H       0.70120   0.51640   0.95010
C          C       0.17470   0.71030   0.32370
C          C       0.57530   0.53970   0.82370
H          H       0.20580   0.70620   0.29010
H          H       0.54420   0.54380   0.79010
C          C       0.07950   0.71030   0.32400
C          C       0.67050   0.53970   0.82400
H          H       0.04830   0.70590   0.29040
H          H       0.70170   0.54410   0.79040
N          N       0.22350   0.71600   0.37090
N          N       0.52650   0.53400   0.87090
N          N       0.22350   0.53400   0.87910
N          N       0.03060   0.71630   0.37070
N          N       0.71940   0.53370   0.87070
O          O       0.39020   0.68080  -0.01810
O          O       0.85980   0.68090   0.26800
O          O       0.38850   0.57030  -0.01770
O          O       0.26920   0.62690   0.02820
O          O       0.98090   0.62690   0.22180
S          S       0.36590   0.62630   0.01130
S          S       0.88410   0.62370   0.01130
S          S       0.88410   0.62630   0.23870
O          O       0.87290   0.82010   0.33030
H          H       0.92700   0.84500   0.32400
H          H       0.83300   0.85400   0.33900
C          C       0.82040   0.62590   0.17500
C          C       0.72390   0.62540   0.17630
C          C       0.67080   0.62530   0.22710
H          H       0.70190   0.62550   0.26100
C          C       0.52610   0.62460   0.17630
C          C       0.52610   0.62540   0.07370
C          C       0.57920   0.62480   0.22710
C          C       0.57920   0.62530   0.02290
H          H       0.54810   0.62550  -0.01100
H          H       0.54810   0.62450   0.26100
C          C       0.57520   0.62500   0.12500
C          C       0.38140   0.62500   0.12500
H          H       0.31720   0.62500   0.12500
H          H       0.70580   0.70620   0.79010
C          C       0.57950   0.71030   0.82400
N          N       0.53060   0.71630   0.87070
O          O       0.38850   0.67970   0.26770
O          O       0.26920   0.62320   0.22180
S          S       0.36590   0.62370   0.23870
C          C       0.07990   0.22610   0.91700
H          H       0.04880   0.23360   0.95010
C          C       0.17470   0.21030   0.82370
H          H       0.20580   0.20620   0.79010
C          C       0.07950   0.21030   0.82400
H          H       0.04830   0.20590   0.79040
N          N       0.03060   0.21630   0.87070
O          O       0.87290   0.32010   0.83030
H          H       0.92700   0.34500   0.82400
H          H       0.83300   0.35400   0.83900
O          O       0.87710   0.32010   0.91970
H          H       0.82300   0.34500   0.92600
H          H       0.91700   0.35400   0.91100
H          H       0.04810   0.12450   0.26100
C          C       0.07520   0.12500   0.12500
C          C      -0.11860   0.12500   0.12500
H          H      -0.18280   0.12500   0.12500
C          C       0.07570   0.22560   0.33280
H          H       0.04470   0.23200   0.29940
C          C       0.17010   0.22610   0.33300
H          H       0.20120   0.23360   0.29990
C          C       0.07530   0.21030   0.42620
H          H       0.04420   0.20620   0.45990
C          C       0.17050   0.21030   0.42600
H          H       0.20170   0.20590   0.45960
N          N       0.02650   0.21600   0.37910
N          N       0.21940   0.21630   0.37930
O          O      -0.11150   0.17970   0.26770
O          O      -0.23080   0.12320   0.22180
S          S      -0.13410   0.12370   0.23870
O          O       0.37710   0.32010   0.41970
H          H       0.32300   0.34500   0.42600
H          H       0.41700   0.35400   0.41100
C          C       0.32040   0.12590   0.17500
C          C       0.22390   0.12540   0.17630
C          C       0.17080   0.12530   0.22710
C          C       0.17080   0.12480   0.02290
C          C       0.07920   0.12530   0.02290
H          H       0.04810   0.12550  -0.01100
H          H       0.20190   0.12450  -0.01100
H          H       0.20190   0.12550   0.26100
C          C       0.17480   0.12500   0.12500
C          C       0.36860   0.12500   0.12500
H          H       0.43280   0.12500   0.12500
C          C       0.67430   0.22560   0.41720
C          C       0.07570   0.02440   0.91720
H          H       0.70530   0.23200   0.45060
H          H       0.04470   0.01800   0.95060
C          C       0.57990   0.22610   0.41700
C          C       0.17010   0.02390   0.91700
H          H       0.54880   0.23360   0.45010
H          H       0.20120   0.01640   0.95010
C          C       0.67470   0.21030   0.32370
C          C       0.07530   0.03970   0.82370
H          H       0.70580   0.20620   0.29010
H          H       0.04420   0.04380   0.79010
C          C       0.57950   0.21030   0.32400
C          C       0.17050   0.03970   0.82400
H          H       0.54830   0.20590   0.29040
H          H       0.20170   0.04410   0.79040
N          N       0.72350   0.21600   0.37090
N          N       0.02650   0.03400   0.87090
N          N       0.72350   0.03400   0.87910
N          N       0.53060   0.21630   0.37070
N          N       0.21940   0.03370   0.87070
O          O      -0.10980   0.18080  -0.01810
O          O       0.35980   0.06910  -0.01810
O          O       0.35980   0.18090   0.26800
O          O      -0.11150   0.07030  -0.01770
O          O      -0.23080   0.12690   0.02820
O          O       0.48090   0.12320   0.02820
S          S      -0.13410   0.12630   0.01130
S          S       0.38410   0.12370   0.01130
O          O       0.37290   0.32010   0.33030
H          H       0.42700   0.34500   0.32400
H          H       0.33300   0.35400   0.33900
O          O       0.48090   0.12690   0.22180
S          S       0.38410   0.12630   0.23870
C          C      -0.07040   0.12410   0.17500
C          C      -0.07040   0.12590   0.07490
C          C       0.32040   0.12410   0.07490
C          C       0.02610   0.12460   0.17630
C          C       0.02610   0.12540   0.07370
C          C       0.22390   0.12460   0.07370
C          C       0.07920   0.12480   0.22710
C          C       0.17430   0.22560   0.91720
H          H       0.20530   0.23200   0.95060
C          C       0.57040   0.87410   0.42500
C          C       0.47390   0.87460   0.42630
C          C       0.42080   0.87480   0.47710
H          H       0.45190   0.87450   0.51100
C          C       0.42480   0.87500   0.37500
C          C       0.61860   0.87500   0.37500
H          H       0.68280   0.87500   0.37500
C          C       0.42430   0.97560   0.58280
H          H       0.45530   0.98200   0.54940
C          C       0.32990   0.97610   0.58300
H          H       0.29880   0.98360   0.54990
C          C       0.42470   0.96030   0.67620
H          H       0.45580   0.95620   0.70990
C          C       0.32950   0.96030   0.67600
H          H       0.29830   0.95590   0.70960
N          N       0.47350   0.96600   0.62910
N          N       0.28060   0.96630   0.62930
O          O       0.60980   0.81920   0.51810
O          O       0.61160   0.92970   0.51770
O          O       0.73090   0.87320   0.47180
S          S       0.63410   0.87370   0.48870
Ag         Ag      0.62500   0.95910   0.62500
Ag         Ag      0.12500   0.96700   0.62500
O          O       0.12290   0.07010   0.66970
H          H       0.17700   0.09500   0.67600
H          H       0.08300   0.10400   0.66100
C          C       0.17960   0.87590   0.42500
C          C       0.17960   0.87410   0.32490
C          C       0.57040   0.87590   0.32490
C          C       0.27610   0.87540   0.42630
C          C       0.27610   0.87460   0.32370
C          C       0.47390   0.87540   0.32370
C          C       0.32920   0.87530   0.47710
C          C       0.32920   0.87480   0.27290
C          C       0.42080   0.87530   0.27290
H          H       0.45190   0.87550   0.23900
H          H       0.29810   0.87450   0.23900
H          H       0.29810   0.87550   0.51100
C          C       0.32520   0.87500   0.37500
C          C       0.13140   0.87500   0.37500
H          H       0.06720   0.87500   0.37500
C          C       0.82570   0.97560   0.66720
C          C       0.42430   0.77440   0.16720
H          H       0.79470   0.98200   0.70060
H          H       0.45530   0.76800   0.20060
C          C       0.92010   0.97610   0.66700
C          C       0.32990   0.77390   0.16700
H          H       0.95120   0.98360   0.70010
H          H       0.29880   0.76640   0.20010
C          C       0.82530   0.96030   0.57370
C          C       0.42470   0.78970   0.07370
H          H       0.79420   0.95620   0.54010
H          H       0.45580   0.79380   0.04010
C          C       0.92050   0.96030   0.57400
C          C       0.32950   0.78970   0.07400
H          H       0.95170   0.95590   0.54040
H          H       0.29830   0.79410   0.04040
N          N       0.77650   0.96600   0.62090
N          N       0.47350   0.78400   0.12090
N          N       0.77650   0.78400   0.12910
N          N       0.96940   0.96630   0.62070
N          N       0.28060   0.78370   0.12070
O          O       0.60980   0.93090   0.23190
O          O       0.14020   0.81920   0.23190
O          O       0.14020   0.93090   0.51810
O          O       1.10980   0.93090   0.73190
O          O       0.61160   0.82030   0.23230
O          O       0.13850   0.92970   0.23230
O          O       0.13850   0.82030   0.51770
O          O       0.63850   0.92970   0.73230
O          O       0.63850   0.82030   1.01770
O          O       0.73090   0.87690   0.27820
O          O       0.01920   0.87320   0.27820
O          O       0.01920   0.87690   0.47180
S          S       0.63410   0.87630   0.26130
S          S       0.11590   0.87370   0.26130
S          S       0.11590   0.87630   0.48870
Ag         Ag      0.62500   0.79090   0.12500
Ag         Ag      0.12500   0.95910   0.12500
Ag         Ag      0.12500   0.79090   0.62500
Ag         Ag      0.62500   0.78300   0.62500
Ag         Ag      0.62500   0.96700   0.12500
Ag         Ag      0.12500   0.78300   0.12500
O          O       0.12710   0.07010   0.58030
H          H       0.07300   0.09500   0.57400
H          H       0.16700   0.10400   0.58900
C          C       0.32570   0.77440   0.58280
H          H       0.29470   0.76800   0.54940
C          C       0.42010   0.77390   0.58300
H          H       0.45120   0.76640   0.54990
C          C       0.32530   0.78970   0.67620
H          H       0.29420   0.79380   0.70990
C          C       0.42050   0.78970   0.67600
H          H       0.45170   0.79410   0.70960
N          N       0.27650   0.78400   0.62910
N          N       0.46940   0.78370   0.62930
O          O       0.62710   0.67990   0.66970
H          H       0.57300   0.65500   0.67600
H          H       0.66700   0.64600   0.66100
C          C       0.92430   0.77440   0.66720
C          C       0.32570   0.97560   0.16720
H          H       0.95530   0.76800   0.70060
H          H       0.29470   0.98200   0.20060
C          C       0.82990   0.77390   0.66700
C          C       0.42010   0.97610   0.16700
H          H       0.79880   0.76640   0.70010
H          H       0.45120   0.98360   0.20010
C          C       0.92470   0.78970   0.57370
C          C       0.32530   0.96030   0.07370
H          H       0.95580   0.79380   0.54010
H          H       0.29420   0.95620   0.04010
C          C       0.82950   0.78970   0.57400
C          C       0.42050   0.96030   0.07400
H          H       0.79830   0.79410   0.54040
H          H       0.45170   0.95590   0.04040
N          N       0.97350   0.78400   0.62090
N          N       0.27650   0.96600   0.12090
N          N       0.97350   0.96600   0.12910
N          N       0.78060   0.78370   0.62070
N          N       0.46940   0.96630   0.12070
O          O       0.64020   0.81920   0.73190
O          O       1.11160   0.82030   0.73230
O          O       1.11160   0.92970   1.01770
O          O       0.62290   0.67990   0.58030
H          H       0.67700   0.65500   0.57400
H          H       0.58300   0.64600   0.58900
O          O       0.12290   0.67990   0.08030
H          H       0.17700   0.65500   0.07400
H          H       0.08300   0.64600   0.08900
C          C       0.82570   0.77440   0.08280
H          H       0.79470   0.76800   0.04940
C          C       0.92010   0.77390   0.08300
H          H       0.95120   0.76640   0.04990
C          C       0.82530   0.78970   0.17620
H          H       0.79420   0.79380   0.20990
C          C       0.92050   0.78970   0.17600
H          H       0.95170   0.79410   0.20960
N          N       0.96940   0.78370   0.12930
O          O       1.10980   0.81920   1.01800
O          O       0.12710   0.67990   0.16970
H          H       0.07300   0.65500   0.17600
H          H       0.16700   0.64600   0.16100
O          O       0.62710   0.07010   0.08030
H          H       0.57300   0.09500   0.07400
H          H       0.66700   0.10400   0.08900
C          C       0.92430   0.97560   0.08280
H          H       0.95530   0.98200   0.04940
C          C       0.82990   0.97610   0.08300
H          H       0.79880   0.98360   0.04990
C          C       0.92470   0.96030   0.17620
H          H       0.95580   0.95620   0.20990
C          C       0.82950   0.96030   0.17600
H          H       0.79830   0.95590   0.20960
N          N       0.78060   0.96630   0.12930
O          O       0.64020   0.93090   1.01800
O          O       0.62290   0.07010   0.16970
H          H       0.67700   0.09500   0.17600
H          H       0.58300   0.10400   0.16100
C          C       0.57040   0.37410   0.92500
C          C       0.47390   0.37460   0.92630
C          C       0.42080   0.37480   0.97710
H          H       0.45190   0.37450   1.01100
C          C       0.42480   0.37500   0.87500
C          C       0.61860   0.37500   0.87500
H          H       0.68280   0.37500   0.87500
C          C       0.42430   0.47560   0.08280
H          H       0.45530   0.48200   0.04940
C          C       0.32990   0.47610   0.08300
H          H       0.29880   0.48360   0.04990
C          C       0.42470   0.46030   0.17620
H          H       0.45580   0.45620   0.20990
C          C       0.32950   0.46030   0.17600
H          H       0.29830   0.45590   0.20960
N          N       0.47350   0.46600   0.12910
N          N       0.28060   0.46630   0.12930
O          O       0.60980   0.31920   1.01800
O          O       0.61160   0.42970   1.01770
O          O       0.73090   0.37320   0.97180
S          S       0.63410   0.37370   0.98870
Ag         Ag      0.62500   0.45910   0.12500
Ag         Ag      0.12500   0.46700   0.12500
O          O       0.12290   0.57010   0.16970
H          H       0.17700   0.59500   0.17600
H          H       0.08300   0.60400   0.16100
C          C       0.17960   0.37590   0.92500
C          C       0.17960   0.37410   0.82490
C          C       0.57040   0.37590   0.82490
C          C       0.27610   0.37540   0.92630
C          C       0.27610   0.37460   0.82370
C          C       0.47390   0.37540   0.82370
C          C       0.32920   0.37530   0.97710
C          C       0.32920   0.37480   0.77290
C          C       0.42080   0.37530   0.77290
H          H       0.45190   0.37550   0.73900
H          H       0.29810   0.37450   0.73900
H          H       0.29810   0.37550   1.01100
C          C       0.32520   0.37500   0.87500
C          C       0.13140   0.37500   0.87500
H          H       0.06720   0.37500   0.87500
C          C       0.82570   0.47560   0.16720
C          C       0.42430   0.27440   0.66720
H          H       0.79470   0.48200   0.20060
H          H       0.45530   0.26800   0.70060
C          C       0.92010   0.47610   0.16700
C          C       0.32990   0.27390   0.66700
H          H       0.95120   0.48360   0.20010
H          H       0.29880   0.26640   0.70010
C          C       0.82530   0.46030   0.07370
C          C       0.42470   0.28970   0.57370
H          H       0.79420   0.45620   0.04010
H          H       0.45580   0.29380   0.54010
C          C       0.92050   0.46030   0.07400
C          C       0.32950   0.28970   0.57400
H          H       0.95170   0.45590   0.04040
H          H       0.29830   0.29410   0.54040
N          N       0.77650   0.46600   0.12090
N          N       0.47350   0.28400   0.62090
N          N       0.77650   0.28400   0.62910
N          N       0.96940   0.46630   0.12070
N          N       0.28060   0.28370   0.62070
O          O       0.60980   0.43090   0.73190
O          O       0.14020   0.31920   0.73190
O          O       0.14020   0.43090   1.01800
O          O       1.10980   0.43090   0.23190
O          O       0.61160   0.32030   0.73230
O          O       0.13850   0.42970   0.73230
O          O       0.13850   0.32030   1.01770
O          O       0.63850   0.42970   0.23230
O          O       0.63850   0.32030   0.51770
O          O       0.73090   0.37690   0.77820
O          O       0.01920   0.37320   0.77820
O          O       0.01920   0.37690   0.97180
S          S       0.63410   0.37630   0.76130
S          S       0.11590   0.37370   0.76130
S          S       0.11590   0.37630   0.98870
Ag         Ag      0.62500   0.29090   0.62500
Ag         Ag      0.12500   0.45910   0.62500
Ag         Ag      0.12500   0.29090   0.12500
Ag         Ag      0.62500   0.28300   0.12500
Ag         Ag      0.62500   0.46700   0.62500
Ag         Ag      0.12500   0.28300   0.62500
O          O       0.12710   0.57010   0.08030
H          H       0.07300   0.59500   0.07400
H          H       0.16700   0.60400   0.08900
C          C       1.07040   0.87410   0.92500
C          C       0.97390   0.87460   0.92630
C          C       0.92080   0.87480   0.97710
H          H       0.95190   0.87450   1.01100
C          C       0.92480   0.87500   0.87500
C          C       1.11860   0.87500   0.87500
H          H       1.18280   0.87500   0.87500
O          O       1.23090   0.87320   0.97180
S          S       1.13410   0.87370   0.98870
C          C       0.67960   0.87590   0.92500
C          C       0.67960   0.87410   0.82490
C          C       1.07040   0.87590   0.82490
C          C       0.77610   0.87540   0.92630
C          C       0.77610   0.87460   0.82370
C          C       0.97390   0.87540   0.82370
C          C       0.82920   0.87530   0.97710
C          C       0.82920   0.87480   0.77290
C          C       0.92080   0.87530   0.77290
H          H       0.95190   0.87550   0.73900
H          H       0.79810   0.87450   0.73900
H          H       0.79810   0.87550   1.01100
C          C       0.82520   0.87500   0.87500
C          C       0.63140   0.87500   0.87500
H          H       0.56720   0.87500   0.87500
O          O       1.23090   0.87690   0.77820
O          O       0.51920   0.87320   0.77820
O          O       0.51920   0.87690   0.97180
S          S       1.13410   0.87630   0.76130
S          S       0.61590   0.87370   0.76130
S          S       0.61590   0.87630   0.98870
C          C       1.07040   0.37410   0.42500
C          C       0.97390   0.37460   0.42630
C          C       0.92080   0.37480   0.47710
H          H       0.95190   0.37450   0.51100
C          C       0.92480   0.37500   0.37500
C          C       1.11860   0.37500   0.37500
H          H       1.18280   0.37500   0.37500
C          C       0.92430   0.47560   0.58280
H          H       0.95530   0.48200   0.54940
C          C       0.82990   0.47610   0.58300
H          H       0.79880   0.48360   0.54990
C          C       0.92470   0.46030   0.67620
H          H       0.95580   0.45620   0.70990
C          C       0.82950   0.46030   0.67600
H          H       0.79830   0.45590   0.70960
N          N       0.97350   0.46600   0.62910
N          N       0.78060   0.46630   0.62930
O          O       1.10980   0.31920   0.51810
O          O       1.11160   0.42970   0.51770
O          O       1.23090   0.37320   0.47180
S          S       1.13410   0.37370   0.48870
O          O       0.62290   0.57010   0.66970
H          H       0.67700   0.59500   0.67600
H          H       0.58300   0.60400   0.66100
C          C       0.67960   0.37590   0.42500
C          C       0.67960   0.37410   0.32490
C          C       1.07040   0.37590   0.32490
C          C       0.77610   0.37540   0.42630
C          C       0.77610   0.37460   0.32370
C          C       0.97390   0.37540   0.32370
C          C       0.82920   0.37530   0.47710
C          C       0.82920   0.37480   0.27290
C          C       0.92080   0.37530   0.27290
H          H       0.95190   0.37550   0.23900
H          H       0.79810   0.37450   0.23900
H          H       0.79810   0.37550   0.51100
C          C       0.82520   0.37500   0.37500
C          C       0.63140   0.37500   0.37500
H          H       0.56720   0.37500   0.37500
C          C       0.32570   0.47560   0.66720
C          C       0.92430   0.27440   0.16720
H          H       0.29470   0.48200   0.70060
H          H       0.95530   0.26800   0.20060
C          C       0.42010   0.47610   0.66700
C          C       0.82990   0.27390   0.16700
H          H       0.45120   0.48360   0.70010
H          H       0.79880   0.26640   0.20010
C          C       0.32530   0.46030   0.57370
C          C       0.92470   0.28970   0.07370
H          H       0.29420   0.45620   0.54010
H          H       0.95580   0.29380   0.04010
C          C       0.42050   0.46030   0.57400
C          C       0.82950   0.28970   0.07400
H          H       0.45170   0.45590   0.54040
H          H       0.79830   0.29410   0.04040
N          N       0.27650   0.46600   0.62090
N          N       0.97350   0.28400   0.12090
N          N       0.27650   0.28400   0.12910
N          N       0.46940   0.46630   0.62070
N          N       0.78060   0.28370   0.12070
O          O       0.64020   0.31920   0.23190
O          O       0.64020   0.43090   0.51810
O          O       1.11160   0.32030   0.23230
O          O       1.23090   0.37690   0.27820
O          O       0.51920   0.37320   0.27820
O          O       0.51920   0.37690   0.47180
S          S       1.13410   0.37630   0.26130
S          S       0.61590   0.37370   0.26130
S          S       0.61590   0.37630   0.48870
O          O       0.62710   0.57010   0.58030
H          H       0.57300   0.59500   0.57400
H          H       0.66700   0.60400   0.58900
C          C       0.32570   0.27440   0.08280
H          H       0.29470   0.26800   0.04940
C          C       0.42010   0.27390   0.08300
H          H       0.45120   0.26640   0.04990
C          C       0.32530   0.28970   0.17620
H          H       0.29420   0.29380   0.20990
C          C       0.42050   0.28970   0.17600
H          H       0.45170   0.29410   0.20960
N          N       0.46940   0.28370   0.12930
O          O       0.62710   0.17990   0.16970
H          H       0.57300   0.15500   0.17600
H          H       0.66700   0.14600   0.16100
O          O       0.62290   0.17990   0.08030
H          H       0.67700   0.15500   0.07400
H          H       0.58300   0.14600   0.08900
O          O       0.12290   0.17990   0.58030
H          H       0.17700   0.15500   0.57400
H          H       0.08300   0.14600   0.58900
C          C       0.82570   0.27440   0.58280
H          H       0.79470   0.26800   0.54940
C          C       0.92010   0.27390   0.58300
H          H       0.95120   0.26640   0.54990
C          C       0.82530   0.28970   0.67620
H          H       0.79420   0.29380   0.70990
C          C       0.92050   0.28970   0.67600
H          H       0.95170   0.29410   0.70960
N          N       0.96940   0.28370   0.62930
O          O       0.12710   0.17990   0.66970
H          H       0.07300   0.15500   0.67600
H          H       0.16700   0.14600   0.66100
