data_crystal

_cell_length_a    19.67860
_cell_length_b    22.77030
_cell_length_c    14.83440
_cell_angle_alpha 90.00000
_cell_angle_beta  104.15000
_cell_angle_gamma 90.00000

_symmetry_space_group_name_Hall 'P 1'
_symmetry_space_group_name_H-M  'P 1'

loop_
_symmetry_equiv_pos_as_xyz
 'x,y,z'

loop_
_atom_site_label
_atom_site_type_symbol
_atom_site_fract_x
_atom_site_fract_y
_atom_site_fract_z
Mn         Mn      0.03050   0.93040   0.03380
Mn         Mn      0.05710   0.93930   0.28810
O          O       0.93950   0.90900   0.08170
O          O       0.95240   0.93560   0.22730
O          O       0.09510   0.89190   0.15970
O          O       0.15790   0.89330   0.30320
O          O       0.19980   0.83330   0.10580
O          O       0.80260   0.89090   0.06370
N          N       0.14400   0.45610   0.02280
C          C       0.49200   0.77800   0.00090
H          H       0.49310   0.81360   0.03180
C          C       0.36940   0.76710   0.01760
C          C       0.36950   0.76110   0.10990
C          C       0.42980   0.73190   0.17700
H          H       0.42330   0.73490   0.23900
H          H       0.47280   0.75080   0.17420
H          H       0.43170   0.69120   0.16070
C          C       0.31340   0.78330   0.14200
H          H       0.31390   0.78080   0.20470
C          C       0.25700   0.80920   0.08010
C          C       0.20500   0.83750   0.20150
H          H       0.25070   0.85280   0.23250
H          H       0.20020   0.79880   0.22650
C          C       0.14820   0.87790   0.22020
C          C       0.61650   0.79600   0.00010
C          C       0.74130   0.85980   0.04950
C          C       0.72270   0.82350   0.11390
H          H       0.75180   0.82040   0.17340
C          C       0.66050   0.79120   0.09020
C          C       0.64180   0.75220   0.16240
H          H       0.68300   0.74470   0.21100
H          H       0.62330   0.71580   0.13430
H          H       0.60730   0.77140   0.18790
C          C       0.84600   0.89260   0.15450
H          H       0.84890   0.85370   0.18190
H          H       0.82590   0.91890   0.19250
C          C       0.91970   0.91400   0.15270
C          C       0.19970   0.41730   0.04640
H          H       0.20670   0.40600   0.11030
H          H       0.24140   0.43600   0.03760
H          H       0.18980   0.38310   0.00760
C          C       0.10800   0.46450   0.09240
H          H       0.06910   0.43790   0.08290
H          H       0.09120   0.50420   0.08990
H          H       0.13920   0.45730   0.15210
Mn         Mn      0.03060   0.56960   0.53380
Mn         Mn      0.05710   0.56070   0.78810
O          O       0.03720   0.47840   0.58640
O          O       0.09470   0.48330   0.73610
O          O       0.17860   0.39170   0.72260
O          O       0.87960   0.45050   0.51640
O          O       0.89170   0.39300   0.64130
O          O       0.78570   0.45090   0.69070
O          O       0.02190   0.65270   0.45680
O          O       0.07740   0.53110   0.92270
C          C       0.08220   0.45970   0.65820
C          C       0.12230   0.40540   0.64290
H          H       0.09030   0.37230   0.62970
H          H       0.14150   0.41140   0.58930
C          C       0.23670   0.42610   0.73740
C          C       0.29080   0.41050   0.81330
H          H       0.28500   0.37880   0.85030
C          C       0.35320   0.44180   0.83440
C          C       0.36110   0.48930   0.77770
C          C       0.30710   0.50420   0.70220
C          C       0.24460   0.47340   0.68150
H          H       0.20840   0.48410   0.63110
C          C       0.31560   0.55360   0.63720
H          H       0.27020   0.56650   0.60270
H          H       0.34190   0.53980   0.59480
H          H       0.33990   0.58580   0.67280
C          C       0.41160   0.42270   0.91420
H          H       0.43310   0.45650   0.94800
H          H       0.44590   0.40140   0.89100
H          H       0.39320   0.39770   0.95480
C          C       0.42620   0.52630   0.79960
C          C       0.48570   0.50820   0.77460
H          H       0.48510   0.47200   0.74550
C          C       0.54670   0.54120   0.79040
C          C       0.54830   0.59670   0.83320
C          C       0.48810   0.61630   0.86120
C          C       0.42660   0.58050   0.84420
C          C       0.36690   0.60160   0.87440
H          H       0.32650   0.57870   0.86350
C          C       0.36790   0.65410   0.91860
H          H       0.32840   0.66630   0.93740
C          C       0.42880   0.69100   0.93670
C          C       0.48870   0.67160   0.90810
C          C       0.55060   0.70690   0.92570
C          C       0.60970   0.68600   0.89520
H          H       0.65020   0.70870   0.90610
C          C       0.60830   0.63390   0.85070
H          H       0.64750   0.62210   0.83100
C          C       0.55150   0.76040   0.97430
C          C       0.43060   0.74490   0.98400
C          C       0.31170   0.80520   0.85630
H          H       0.26530   0.81630   0.82310
H          H       0.32510   0.76980   0.83020
H          H       0.34400   0.83610   0.85150
C          C       0.25750   0.81530   0.98960
H          H       0.21980   0.83330   0.94880
C          C       0.31310   0.79520   0.95700
C          C       0.63490   0.83430   0.93590
C          C       0.69710   0.86550   0.96100
H          H       0.70950   0.89060   0.91820
C          C       0.58710   0.84280   0.84150
H          H       0.60490   0.87370   0.80970
H          H       0.54110   0.85310   0.84770
H          H       0.58460   0.80710   0.80650
C          C       0.60940   0.51820   0.76180
C          C       0.61940   0.53070   0.67380
C          C       0.67830   0.50820   0.64800
H          H       0.68520   0.51660   0.58960
C          C       0.72600   0.47360   0.70890
C          C       0.71540   0.46120   0.79470
H          H       0.74740   0.43740   0.83500
C          C       0.65810   0.48310   0.82300
C          C       0.64850   0.46850   0.91760
H          H       0.68810   0.44640   0.95140
H          H       0.60660   0.44570   0.91140
H          H       0.64460   0.50420   0.95050
C          C       0.56760   0.56710   0.60710
H          H       0.58200   0.57090   0.55010
H          H       0.56490   0.60540   0.63330
H          H       0.52240   0.54870   0.59500
C          C       0.79590   0.46180   0.60100
H          H       0.79830   0.50380   0.59180
H          H       0.75600   0.44670   0.55470
C          C       0.86280   0.43310   0.58730
C          C       0.13200   0.48480   0.94230
H          H       0.15760   0.47600   0.89900
O          O       0.03210   0.64720   0.84350
Mn         Mn      0.96950   0.43040   0.46620
O          O       0.12040   0.54950   0.48360
O          O       0.09510   0.60810   0.65970
O          O       0.15790   0.60670   0.80320
O          O       0.96290   0.52160   0.41360
O          O       0.93950   0.59100   0.58170
O          O       0.95240   0.56440   0.72730
O          O       0.06050   0.09100   0.91830
O          O       0.04760   0.06440   0.77270
Mn         Mn      0.96940   0.06960   0.96620
Mn         Mn      0.94290   0.06070   0.71190
O          O       0.06050   0.40900   0.41830
O          O       0.04760   0.43560   0.27270
O          O       0.90490   0.39190   0.34030
O          O       0.84210   0.39330   0.19680
O          O       0.80020   0.33330   0.39420
O          O       0.92260   0.03110   0.57730
O          O       0.19740   0.39090   0.43630
C          C       0.69290   0.00420   0.79780
C          C       0.68440   0.05360   0.86280
H          H       0.72980   0.06650   0.89730
H          H       0.65810   0.03980   0.90520
H          H       0.66010   0.08580   0.82720
C          C       0.57380   0.02640   0.70040
C          C       0.51430   0.00820   0.72540
C          C       0.45330   0.04120   0.70960
C          C       0.45170   0.09670   0.66680
C          C       0.51190   0.11630   0.63880
C          C       0.57340   0.08050   0.65580
C          C       0.63310   0.10160   0.62560
H          H       0.67350   0.07870   0.63650
C          C       0.63210   0.15410   0.58140
H          H       0.67160   0.16630   0.56260
C          C       0.57120   0.19100   0.56330
C          C       0.51130   0.17160   0.59190
C          C       0.44940   0.20690   0.57430
C          C       0.39030   0.18600   0.60480
H          H       0.34980   0.20870   0.59390
C          C       0.39170   0.13390   0.64930
H          H       0.35250   0.12210   0.66900
C          C       0.44850   0.26040   0.52570
C          C       0.50800   0.27800   0.49910
H          H       0.50690   0.31360   0.46820
C          C       0.56940   0.24490   0.51600
C          C       0.68830   0.30520   0.64370
H          H       0.73470   0.31630   0.67690
H          H       0.67490   0.26980   0.66980
H          H       0.65600   0.33610   0.64850
C          C       0.63060   0.26710   0.48240
C          C       0.63050   0.26110   0.39010
C          C       0.57020   0.23190   0.32300
H          H       0.57670   0.23490   0.26100
H          H       0.52720   0.25080   0.32580
H          H       0.56830   0.19120   0.33930
C          C       0.68660   0.28330   0.35800
H          H       0.68610   0.28080   0.29530
C          C       0.74300   0.30920   0.41990
C          C       0.74250   0.31530   0.51040
H          H       0.78020   0.33330   0.55120
C          C       0.68690   0.29520   0.54300
C          C       0.79500   0.33750   0.29850
H          H       0.74930   0.35280   0.26750
H          H       0.79980   0.29880   0.27350
C          C       0.85180   0.37790   0.27980
C          C       0.38350   0.29600   0.49990
C          C       0.36510   0.33430   0.56410
C          C       0.30290   0.36550   0.53900
H          H       0.29050   0.39060   0.58180
C          C       0.25870   0.35980   0.45050
C          C       0.27730   0.32350   0.38610
H          H       0.24820   0.32040   0.32660
C          C       0.33950   0.29120   0.40980
C          C       0.35820   0.25220   0.33760
H          H       0.31700   0.24470   0.28900
H          H       0.37670   0.21580   0.36570
H          H       0.39270   0.27140   0.31210
C          C       0.41290   0.34280   0.65850
H          H       0.39510   0.37370   0.69030
H          H       0.45890   0.35310   0.65230
H          H       0.41540   0.30710   0.69350
C          C       0.15400   0.39260   0.34550
H          H       0.15110   0.35370   0.31810
H          H       0.17410   0.41890   0.30750
C          C       0.08030   0.41400   0.34730
C          C       0.39060   0.01820   0.73820
C          C       0.38060   0.03070   0.82620
C          C       0.32170   0.00820   0.85200
H          H       0.31480   0.01660   0.91040
H          H       0.35540   0.00420   0.54950
C          C       0.43240   0.06710   0.89290
H          H       0.41800   0.07090   0.94990
H          H       0.43510   0.10540   0.86670
H          H       0.47760   0.04870   0.90500
H          H       0.20170   0.00380   0.90820
H          H       0.90880   0.00420   0.41010
O          O       0.96790   0.14720   0.65650
Mn         Mn      0.94290   0.43930   0.21190
O          O       0.90490   0.10810   0.84030
O          O       0.84210   0.10670   0.69680
O          O       0.90530   0.51670   0.26390
O          O       0.82140   0.60830   0.27740
O          O       0.10830   0.60700   0.35870
O          O       0.21430   0.54910   0.30930
O          O       0.97810   0.34730   0.54320
O          O       0.92260   0.46890   0.07730
C          C       0.91780   0.54030   0.34180
C          C       0.87770   0.59460   0.35710
H          H       0.90970   0.62770   0.37030
H          H       0.85850   0.58860   0.41070
C          C       0.76330   0.57390   0.26260
C          C       0.70920   0.58950   0.18670
H          H       0.71500   0.62120   0.14970
C          C       0.64680   0.55820   0.16560
C          C       0.63890   0.51070   0.22230
C          C       0.69290   0.49580   0.29780
C          C       0.75540   0.52660   0.31850
H          H       0.79160   0.51590   0.36890
C          C       0.68440   0.44640   0.36280
H          H       0.72980   0.43350   0.39730
H          H       0.65810   0.46020   0.40520
H          H       0.66010   0.41420   0.32720
C          C       0.58840   0.57730   0.08580
H          H       0.56690   0.54350   0.05200
H          H       0.55410   0.59860   0.10900
H          H       0.60680   0.60230   0.04520
C          C       0.57380   0.47370   0.20040
C          C       0.51430   0.49180   0.22540
H          H       0.51490   0.52800   0.25450
C          C       0.45330   0.45880   0.20960
C          C       0.45170   0.40330   0.16680
C          C       0.51190   0.38370   0.13880
C          C       0.57340   0.41950   0.15580
C          C       0.63310   0.39840   0.12560
H          H       0.67350   0.42130   0.13650
C          C       0.63210   0.34590   0.08140
H          H       0.67160   0.33370   0.06260
C          C       0.57120   0.30900   0.06330
C          C       0.51130   0.32840   0.09190
C          C       0.44940   0.29310   0.07430
C          C       0.39030   0.31400   0.10480
H          H       0.34980   0.29130   0.09390
C          C       0.39170   0.36610   0.14930
H          H       0.35250   0.37790   0.16900
C          C       0.44850   0.23960   0.02570
C          C       0.56940   0.25510   0.01600
C          C       0.68830   0.19480   0.14370
H          H       0.73470   0.18370   0.17690
H          H       0.67490   0.23020   0.16980
H          H       0.65600   0.16390   0.14850
C          C       0.74250   0.18470   0.01040
H          H       0.78020   0.16670   0.05120
C          C       0.68690   0.20480   0.04300
C          C       0.36510   0.16570   0.06410
C          C       0.30290   0.13450   0.03900
H          H       0.29050   0.10940   0.08180
C          C       0.41290   0.15720   0.15850
H          H       0.39510   0.12630   0.19030
H          H       0.45890   0.14690   0.15230
H          H       0.41540   0.19290   0.19350
C          C       0.39060   0.48180   0.23820
C          C       0.38060   0.46930   0.32620
C          C       0.32170   0.49180   0.35200
H          H       0.31480   0.48340   0.41040
C          C       0.27400   0.52640   0.29110
C          C       0.28460   0.53880   0.20530
H          H       0.25260   0.56260   0.16500
C          C       0.34190   0.51690   0.17700
C          C       0.35150   0.53150   0.08240
H          H       0.31190   0.55360   0.04860
H          H       0.39340   0.55430   0.08860
H          H       0.35540   0.49580   0.04950
C          C       0.43240   0.43290   0.39290
H          H       0.41800   0.42910   0.44990
H          H       0.43510   0.39460   0.36670
H          H       0.47760   0.45130   0.40500
C          C       0.20410   0.53820   0.39900
H          H       0.20170   0.49620   0.40820
H          H       0.24400   0.55330   0.44530
C          C       0.13720   0.56690   0.41270
C          C       0.86800   0.51520   0.05770
H          H       0.84240   0.52400   0.10100
O          O       0.96790   0.35280   0.15650
O          O       0.80020   0.16670   0.89420
O          O       0.19740   0.10910   0.93630
N          N       0.85600   0.54390   0.97720
C          C       0.50800   0.22200   0.99910
H          H       0.50690   0.18640   0.96820
C          C       0.63060   0.23290   0.98240
C          C       0.63050   0.23890   0.89010
C          C       0.57020   0.26810   0.82300
H          H       0.57670   0.26510   0.76100
H          H       0.52720   0.24920   0.82580
H          H       0.56830   0.30880   0.83930
C          C       0.68660   0.21670   0.85800
H          H       0.68610   0.21920   0.79530
C          C       0.74300   0.19080   0.91990
C          C       0.79500   0.16250   0.79850
H          H       0.74930   0.14720   0.76750
H          H       0.79980   0.20120   0.77350
C          C       0.85180   0.12210   0.77980
C          C       0.38350   0.20400   0.99990
C          C       0.25870   0.14020   0.95050
C          C       0.27730   0.17650   0.88610
H          H       0.24820   0.17960   0.82660
C          C       0.33950   0.20880   0.90980
C          C       0.35820   0.24780   0.83760
H          H       0.31700   0.25530   0.78900
H          H       0.37670   0.28420   0.86570
H          H       0.39270   0.22860   0.81210
C          C       0.15400   0.10740   0.84550
H          H       0.15110   0.14630   0.81810
H          H       0.17410   0.08110   0.80750
C          C       0.08030   0.08600   0.84730
C          C       0.80030   0.58270   0.95360
H          H       0.79330   0.59400   0.88970
H          H       0.75860   0.56400   0.96240
H          H       0.81020   0.61690   0.99240
C          C       0.89200   0.53550   0.90760
H          H       0.93090   0.56210   0.91710
H          H       0.90880   0.49580   0.91010
H          H       0.86080   0.54270   0.84790
O          O       0.19980   0.66670   0.60580
O          O       0.07740   0.96890   0.42270
O          O       0.80260   0.60910   0.56370
C          C       0.30710   0.99580   0.20220
C          C       0.31560   0.94640   0.13720
H          H       0.27020   0.93350   0.10270
H          H       0.34190   0.96020   0.09480
H          H       0.33990   0.91420   0.17280
C          C       0.42620   0.97360   0.29960
C          C       0.48570   0.99180   0.27460
C          C       0.54670   0.95880   0.29040
C          C       0.54830   0.90330   0.33320
C          C       0.48810   0.88370   0.36120
C          C       0.42660   0.91950   0.34420
C          C       0.36690   0.89840   0.37440
H          H       0.32650   0.92130   0.36350
C          C       0.36790   0.84590   0.41860
H          H       0.32840   0.83370   0.43740
C          C       0.42880   0.80900   0.43670
C          C       0.48870   0.82840   0.40810
C          C       0.55060   0.79310   0.42570
C          C       0.60970   0.81400   0.39520
H          H       0.65020   0.79130   0.40610
C          C       0.60830   0.86610   0.35070
H          H       0.64750   0.87790   0.33100
C          C       0.55150   0.73960   0.47430
C          C       0.49200   0.72200   0.50090
H          H       0.49310   0.68640   0.53180
C          C       0.43060   0.75510   0.48400
C          C       0.31170   0.69480   0.35630
H          H       0.26530   0.68370   0.32310
H          H       0.32510   0.73020   0.33020
H          H       0.34400   0.66390   0.35150
C          C       0.36940   0.73290   0.51760
C          C       0.36950   0.73890   0.60990
C          C       0.42980   0.76810   0.67700
H          H       0.42330   0.76510   0.73900
H          H       0.47280   0.74920   0.67420
H          H       0.43170   0.80880   0.66070
C          C       0.31340   0.71670   0.64200
H          H       0.31390   0.71920   0.70470
C          C       0.25700   0.69080   0.58010
C          C       0.25750   0.68470   0.48960
H          H       0.21980   0.66670   0.44880
C          C       0.31310   0.70480   0.45700
C          C       0.20500   0.66250   0.70150
H          H       0.25070   0.64720   0.73250
H          H       0.20020   0.70120   0.72650
C          C       0.14820   0.62210   0.72020
C          C       0.61650   0.70400   0.50010
C          C       0.63490   0.66570   0.43590
C          C       0.69710   0.63450   0.46100
H          H       0.70950   0.60940   0.41820
C          C       0.74130   0.64020   0.54950
C          C       0.72270   0.67650   0.61390
H          H       0.75180   0.67960   0.67340
C          C       0.66050   0.70880   0.59020
C          C       0.64180   0.74780   0.66240
H          H       0.68300   0.75530   0.71100
H          H       0.62330   0.78420   0.63430
H          H       0.60730   0.72860   0.68790
C          C       0.58710   0.65720   0.34150
H          H       0.60490   0.62630   0.30970
H          H       0.54110   0.64690   0.34770
H          H       0.58460   0.69290   0.30650
C          C       0.84600   0.60740   0.65450
H          H       0.84890   0.64630   0.68190
H          H       0.82590   0.58110   0.69250
C          C       0.91970   0.58600   0.65270
C          C       0.60940   0.98180   0.26180
C          C       0.61940   0.96930   0.17380
C          C       0.67830   0.99180   0.14800
H          H       0.68520   0.98340   0.08960
H          H       0.64460   0.99580   0.45050
C          C       0.56760   0.93290   0.10710
H          H       0.58200   0.92910   0.05010
H          H       0.56490   0.89460   0.13330
H          H       0.52240   0.95130   0.09500
H          H       0.79830   0.99620   0.09180
H          H       0.09120   0.99580   0.58990
O          O       0.03210   0.85280   0.34350
O          O       0.03710   0.02170   0.08640
O          O       0.97810   0.15270   0.04320
O          O       0.87960   0.04960   0.01640
O          O       0.09470   0.01670   0.23610
O          O       0.17860   0.10830   0.22260
O          O       0.89170   0.10700   0.14130
O          O       0.78570   0.04910   0.19070
N          N       0.14400   0.04390   0.52280
C          C       0.08220   0.04030   0.15820
C          C       0.12230   0.09460   0.14290
H          H       0.09030   0.12770   0.12970
H          H       0.14150   0.08860   0.08930
C          C       0.23670   0.07390   0.23740
C          C       0.29080   0.08950   0.31330
H          H       0.28500   0.12120   0.35030
C          C       0.35320   0.05820   0.33440
C          C       0.36110   0.01070   0.27770
C          C       0.24460   0.02660   0.18150
H          H       0.20840   0.01590   0.13110
C          C       0.41160   0.07730   0.41420
H          H       0.43310   0.04350   0.44800
H          H       0.44590   0.09860   0.39100
H          H       0.39320   0.10230   0.45480
H          H       0.48510   0.02800   0.24550
C          C       0.72600   0.02640   0.20890
C          C       0.71540   0.03880   0.29470
H          H       0.74740   0.06260   0.33500
C          C       0.65810   0.01690   0.32300
C          C       0.64850   0.03150   0.41760
H          H       0.68810   0.05360   0.45140
H          H       0.60660   0.05430   0.41140
C          C       0.79590   0.03820   0.10100
H          H       0.75600   0.05330   0.05470
C          C       0.86280   0.06690   0.08730
C          C       0.13200   0.01520   0.44230
H          H       0.15760   0.02400   0.39900
C          C       0.19970   0.08270   0.54640
H          H       0.20670   0.09400   0.61030
H          H       0.24140   0.06400   0.53760
H          H       0.18980   0.11690   0.50760
C          C       0.10800   0.03550   0.59240
H          H       0.06910   0.06210   0.58290
H          H       0.13920   0.04270   0.65210
O          O       0.96280   0.97830   0.91360
O          O       0.90530   0.98330   0.76390
O          O       0.82140   0.89170   0.77740
O          O       0.12040   0.95040   0.98360
O          O       0.10830   0.89300   0.85870
O          O       0.21430   0.95090   0.80930
N          N       0.85600   0.95610   0.47720
C          C       0.91780   0.95970   0.84180
C          C       0.87770   0.90540   0.85710
H          H       0.90970   0.87230   0.87030
H          H       0.85850   0.91140   0.91070
C          C       0.76330   0.92610   0.76260
C          C       0.70920   0.91050   0.68670
H          H       0.71500   0.87880   0.64970
C          C       0.64680   0.94180   0.66560
C          C       0.63890   0.98930   0.72230
C          C       0.75540   0.97340   0.81850
H          H       0.79160   0.98410   0.86890
C          C       0.58840   0.92270   0.58580
H          H       0.56690   0.95650   0.55200
H          H       0.55410   0.90140   0.60900
H          H       0.60680   0.89770   0.54520
H          H       0.51490   0.97200   0.75450
C          C       0.27400   0.97360   0.79110
C          C       0.28460   0.96120   0.70530
H          H       0.25260   0.93740   0.66500
C          C       0.34190   0.98310   0.67700
C          C       0.35150   0.96850   0.58240
H          H       0.31190   0.94640   0.54860
H          H       0.39340   0.94570   0.58860
C          C       0.20410   0.96180   0.89900
H          H       0.24400   0.94670   0.94530
C          C       0.13720   0.93310   0.91270
C          C       0.86800   0.98480   0.55770
H          H       0.84240   0.97600   0.60100
C          C       0.80030   0.91730   0.45360
H          H       0.79330   0.90600   0.38970
H          H       0.75860   0.93600   0.46240
H          H       0.81020   0.88310   0.49240
C          C       0.89200   0.96450   0.40760
H          H       0.93090   0.93790   0.41710
H          H       0.86080   0.95730   0.34790
O          O       0.02190   0.84730   0.95680
H          H       0.02520   0.68490   0.49930
H          H       0.98460   0.64690   0.84930
H          H       0.06450   0.65570   0.42090
H          H       0.06770   0.65500   0.91210
H          H       0.98460   0.85310   0.34930
H          H       0.03860   0.81760   0.29550
H          H       0.06300   0.87470   0.00060
H          H       0.99720   0.82010   0.00120
H          H       0.01770   0.32560   0.53410
H          H       0.01540   0.35310   0.15070
H          H       0.98510   0.35650   0.61770
H          H       0.96140   0.31760   0.20450
H          H       0.98110   0.17480   0.70670
H          H       0.01150   0.14180   0.62290
H          H       0.01800   0.18080   0.08790
H          H       0.94980   0.18550   0.06770
