data_crystal

_cell_length_a    13.62620
_cell_length_b    15.78200
_cell_length_c    11.15500
_cell_angle_alpha 90.00000
_cell_angle_beta  103.08000
_cell_angle_gamma 90.00000

_symmetry_space_group_name_Hall 'P 1'
_symmetry_space_group_name_H-M  'P 1'

loop_
_symmetry_equiv_pos_as_xyz
 'x,y,z'

loop_
_atom_site_label
_atom_site_type_symbol
_atom_site_fract_x
_atom_site_fract_y
_atom_site_fract_z
Zn         Zn      0.18590   0.50000   0.08960
O          O       0.27960   0.40660   0.16780
O          O       0.07900   0.50000   0.18350
H          H       0.10770   0.50000   0.27200
O          O       0.38000   0.41320   0.03910
C          C       0.35230   0.38170   0.12710
C          C       0.40910   0.30500   0.18450
C          C       0.36590   0.24960   0.25440
H          H       0.30180   0.26250   0.26990
C          C       0.41470   0.17590   0.30170
H          H       0.38370   0.13840   0.34860
H          H       0.44850   0.00000   0.24190
H          H       0.01510   0.50000   0.13780
O          O       0.27960   0.59340   0.16780
O          O       0.38000   0.58680   0.03910
C          C       0.35230   0.61830   0.12710
C          C       0.40910   0.69500   0.18450
C          C       0.36590   0.75040   0.25440
H          H       0.30180   0.73750   0.26990
C          C       0.41470   0.82410   0.30170
H          H       0.38370   0.86160   0.34860
O          O       0.22040   0.40660   0.83220
O          O       0.12000   0.41320   0.96090
C          C       0.14770   0.38170   0.87290
C          C       0.09090   0.30500   0.81550
C          C       0.13410   0.24960   0.74560
H          H       0.19820   0.26250   0.73010
C          C       0.08530   0.17590   0.69830
H          H       0.11630   0.13840   0.65140
H          H       0.05150   0.00000   0.75810
Zn         Zn      0.31410   0.50000   0.91040
O          O       0.22040   0.59340   0.83220
O          O       0.12000   0.58680   0.96090
C          C       0.14770   0.61830   0.87290
C          C       0.09090   0.69500   0.81550
C          C       0.13410   0.75040   0.74560
H          H       0.19820   0.73750   0.73010
C          C       0.08530   0.82410   0.69830
H          H       0.11630   0.86160   0.65140
O          O       0.42100   0.50000   0.81650
H          H       0.39220   0.50000   0.72800
H          H       0.48490   0.50000   0.86220
C          C       0.00850   0.15690   0.28070
C          C       0.05140   0.21270   0.21110
H          H       0.11630   0.20060   0.19740
C          C       0.00190   0.28530   0.16120
H          H       0.03130   0.32150   0.11110
C          C       0.06120   0.07630   0.33210
C          C       0.01400   0.00000   0.29430
C          C       0.15680   0.07890   0.41520
C          C       0.20200   0.00000   0.45610
C          C       0.20500   0.15630   0.45860
H          H       0.17410   0.20860   0.42950
C          C       0.49150   0.15690   0.71930
C          C       0.44860   0.21270   0.78890
H          H       0.38360   0.20060   0.80260
C          C       0.49810   0.28530   0.83880
H          H       0.46870   0.32150   0.88890
C          C       0.43890   0.07630   0.66790
C          C       0.48600   0.00000   0.70570
C          C       0.34320   0.07890   0.58480
C          C       0.29800   0.00000   0.54390
C          C       0.29490   0.15630   0.54140
H          H       0.32590   0.20860   0.57050
C          C       0.49150   0.84310   0.71930
C          C       0.44860   0.78730   0.78890
H          H       0.38360   0.79940   0.80260
C          C       0.49810   0.71470   0.83880
H          H       0.46870   0.67850   0.88890
C          C       0.43890   0.92370   0.66790
C          C       0.34320   0.92110   0.58480
C          C       0.29490   0.84370   0.54140
H          H       0.32590   0.79140   0.57050
C          C       0.00850   0.84310   0.28070
C          C       0.05140   0.78730   0.21110
H          H       0.11630   0.79940   0.19740
C          C       0.00190   0.71470   0.16120
H          H       0.03130   0.67850   0.11110
C          C       0.06120   0.92370   0.33210
C          C       0.15680   0.92110   0.41520
C          C       0.20500   0.84370   0.45860
H          H       0.17410   0.79140   0.42950
Zn         Zn      0.68590   0.50000   0.08960
O          O       0.77960   0.40660   0.16780
O          O       0.57900   0.50000   0.18350
H          H       0.60780   0.50000   0.27200
O          O       0.88000   0.41320   0.03910
C          C       0.85230   0.38170   0.12710
C          C       0.90910   0.30500   0.18450
C          C       0.86590   0.24960   0.25440
H          H       0.80180   0.26250   0.26990
C          C       0.91460   0.17590   0.30170
H          H       0.88380   0.13840   0.34860
H          H       0.94850   0.00000   0.24190
H          H       0.51510   0.50000   0.13780
O          O       0.77960   0.59340   0.16780
O          O       0.88000   0.58680   0.03910
C          C       0.85230   0.61830   0.12710
C          C       0.90910   0.69500   0.18450
C          C       0.86590   0.75040   0.25440
H          H       0.80180   0.73750   0.26990
C          C       0.91460   0.82410   0.30170
H          H       0.88380   0.86160   0.34860
O          O       0.72040   0.40660   0.83220
O          O       0.62000   0.41320   0.96090
C          C       0.64770   0.38170   0.87290
C          C       0.59090   0.30500   0.81550
C          C       0.63410   0.24960   0.74560
H          H       0.69820   0.26250   0.73010
C          C       0.58540   0.17590   0.69830
H          H       0.61620   0.13840   0.65140
H          H       0.55150   0.00000   0.75810
Zn         Zn      0.81410   0.50000   0.91040
O          O       0.72040   0.59340   0.83220
O          O       0.62000   0.58680   0.96090
C          C       0.64770   0.61830   0.87290
C          C       0.59090   0.69500   0.81550
C          C       0.63410   0.75040   0.74560
H          H       0.69820   0.73750   0.73010
C          C       0.58540   0.82410   0.69830
H          H       0.61620   0.86160   0.65140
O          O       0.92100   0.50000   0.81650
H          H       0.89220   0.50000   0.72800
H          H       0.98490   0.50000   0.86220
C          C       0.50850   0.15690   0.28070
C          C       0.55140   0.21270   0.21110
H          H       0.61630   0.20060   0.19740
C          C       0.50190   0.28530   0.16120
H          H       0.53130   0.32150   0.11110
C          C       0.56120   0.07630   0.33210
C          C       0.51400   0.00000   0.29430
C          C       0.65680   0.07890   0.41520
C          C       0.70200   0.00000   0.45610
C          C       0.70500   0.15630   0.45860
H          H       0.67410   0.20860   0.42950
C          C       0.99150   0.15690   0.71930
C          C       0.94860   0.21270   0.78890
H          H       0.88370   0.20060   0.80260
C          C       0.99810   0.28530   0.83880
H          H       0.96870   0.32150   0.88890
C          C       0.93880   0.07630   0.66790
C          C       0.98600   0.00000   0.70570
C          C       0.84320   0.07890   0.58480
C          C       0.79800   0.00000   0.54390
C          C       0.79500   0.15630   0.54140
H          H       0.82590   0.20860   0.57050
C          C       0.99150   0.84310   0.71930
C          C       0.94860   0.78730   0.78890
H          H       0.88370   0.79940   0.80260
C          C       0.99810   0.71470   0.83880
H          H       0.96870   0.67850   0.88890
C          C       0.93880   0.92370   0.66790
C          C       0.84320   0.92110   0.58480
C          C       0.79500   0.84370   0.54140
H          H       0.82590   0.79140   0.57050
C          C       0.50850   0.84310   0.28070
C          C       0.55140   0.78730   0.21110
H          H       0.61630   0.79940   0.19740
C          C       0.50190   0.71470   0.16120
H          H       0.53130   0.67850   0.11110
C          C       0.56120   0.92370   0.33210
C          C       0.65680   0.92110   0.41520
C          C       0.70500   0.84370   0.45860
H          H       0.67410   0.79140   0.42950
