data_crystal

_cell_length_a    17.57300
_cell_length_b    22.33950
_cell_length_c    29.15700
_cell_angle_alpha 90.00000
_cell_angle_beta  90.00000
_cell_angle_gamma 113.16000

_symmetry_space_group_name_Hall 'P 1'
_symmetry_space_group_name_H-M  'P 1'

loop_
_symmetry_equiv_pos_as_xyz
 'x,y,z'

loop_
_atom_site_label
_atom_site_type_symbol
_atom_site_fract_x
_atom_site_fract_y
_atom_site_fract_z
C          C       0.84420   0.72160   0.12600
C          C       0.80330   0.76400   0.10750
C          C       0.76080   0.78940   0.13310
C          C       0.81090   0.77160   0.05800
C          C       0.71700   0.82260   0.11420
C          C       0.77010   0.80200   0.03930
C          C       0.71510   0.82640   0.06590
C          C       0.66570   0.86340   0.04610
C          C       0.59630   0.83500   0.02250
C          C       0.69940   0.93200   0.04520
C          C       0.54770   0.85860   0.00540
C          C       0.65840   0.96040   0.02590
C          C       0.78000   0.96640   0.06370
C          C       0.46600   0.82180   0.98420
C          C       0.58440   0.93060   0.00340
C          C       0.40350   0.77720   0.00540
C          C       0.45330   0.83440   0.93590
C          C       0.53740   0.96980   0.98700
C          C       0.33340   0.74180   0.98490
C          C       0.37970   0.79640   0.91440
C          C       0.31700   0.74880   0.94110
C          C       0.23120   0.72040   0.91820
C          C       0.08400   0.69760   0.77600
C          C       0.07960   0.68740   0.72750
C          C       0.00620   0.64680   0.70620
C          C       0.15670   0.71820   0.70090
C          C       0.00900   0.63240   0.65740
C          C       0.15710   0.70060   0.65550
C          C       0.08170   0.65540   0.63350
C          C       0.08010   0.63600   0.58440
C          C       0.13730   0.61840   0.56500
C          C       0.01630   0.63900   0.55710
C          C       0.20830   0.61340   0.59050
C          C       0.13220   0.59660   0.51660
C          C       0.00870   0.62380   0.51180
C          C       0.26290   0.59460   0.57090
C          C       0.18840   0.57520   0.49660
C          C       0.06480   0.59940   0.49080
C          C       0.93880   0.63180   0.48630
C          C       0.25840   0.57820   0.52310
C          C       0.18270   0.55820   0.45010
C          C       0.05780   0.57740   0.44590
C          C       0.86420   0.61640   0.50650
C          C       0.95160   0.66440   0.44340
C          C       0.32050   0.55480   0.50210
C          C       0.24610   0.54000   0.42910
C          C       0.11390   0.55820   0.42550
C          C       0.79550   0.62440   0.48530
C          C       0.88890   0.67660   0.42310
C          C       0.39320   0.55420   0.52670
C          C       0.30960   0.53920   0.45610
C          C       0.24340   0.51900   0.38080
C          C       0.81420   0.65840   0.44350
C          C       0.38230   0.52200   0.56980
C          C       0.46870   0.57480   0.50930
C          C       0.17370   0.46860   0.36310
C          C       0.31250   0.54500   0.35490
C          C       0.74590   0.67420   0.42040
C          C       0.44970   0.52340   0.59440
C          C       0.53140   0.57600   0.52940
C          C       0.17970   0.44200   0.31930
C          C       0.32090   0.52020   0.31090
C          C       0.52760   0.54780   0.57340
C          C       0.24950   0.46540   0.29400
C          C       0.60480   0.55940   0.60080
C          C       0.25650   0.43940   0.25050
C          C       0.69800   0.03960   0.02590
C          C       0.81360   0.03360   0.06370
C          C       0.65380   0.06940   0.00340
C          C       0.76740   0.06800   0.04520
C          C       0.56760   0.03020   0.98700
C          C       0.68910   0.14140   0.00540
C          C       0.80230   0.13660   0.04610
C          C       0.76130   0.16500   0.02250
C          C       0.64420   0.17820   0.98420
C          C       0.88870   0.17360   0.06590
C          C       0.62630   0.22280   0.00540
C          C       0.61890   0.16560   0.93590
C          C       0.89440   0.17740   0.11420
C          C       0.96810   0.19800   0.03930
C          C       0.59160   0.25820   0.98490
C          C       0.58330   0.20360   0.91440
C          C       0.97140   0.21060   0.13310
C          C       0.03930   0.22840   0.05800
C          C       0.56820   0.25120   0.94110
C          C       0.03930   0.23600   0.10750
C          C       0.51080   0.27960   0.91820
C          C       0.12260   0.27840   0.12600
C          C       0.38640   0.30240   0.77600
C          C       0.39220   0.31260   0.72750
C          C       0.35940   0.35320   0.70620
C          C       0.43850   0.28180   0.70090
C          C       0.37660   0.36760   0.65740
C          C       0.45650   0.29940   0.65550
C          C       0.42630   0.34460   0.63350
C          C       0.44410   0.36400   0.58440
C          C       0.51890   0.38160   0.56500
C          C       0.37730   0.36100   0.55710
C          C       0.59490   0.38660   0.59050
C          C       0.53560   0.40340   0.51660
C          C       0.38490   0.37620   0.51180
C          C       0.66830   0.40540   0.57090
C          C       0.61320   0.42480   0.49660
C          C       0.46540   0.40060   0.49080
C          C       0.30700   0.36820   0.48630
C          C       0.68020   0.42180   0.52310
C          C       0.62450   0.44180   0.45010
C          C       0.48040   0.42260   0.44590
C          C       0.24780   0.38360   0.50650
C          C       0.28720   0.33560   0.44340
C          C       0.76570   0.44520   0.50210
C          C       0.70610   0.46000   0.42910
C          C       0.55570   0.44180   0.42550
C          C       0.17110   0.37560   0.48530
C          C       0.21230   0.32340   0.42310
C          C       0.83900   0.44580   0.52670
C          C       0.77040   0.46080   0.45610
C          C       0.72440   0.48100   0.38080
C          C       0.15580   0.34160   0.44350
C          C       0.86030   0.47800   0.56980
C          C       0.89390   0.42520   0.50930
C          C       0.70510   0.53140   0.36310
C          C       0.76750   0.45500   0.35490
C          C       0.07170   0.32580   0.42040
C          C       0.92630   0.47660   0.59440
C          C       0.95540   0.42400   0.52940
C          C       0.73770   0.55800   0.31930
C          C       0.80070   0.47980   0.31090
C          C       0.97980   0.45220   0.57340
C          C       0.78410   0.53460   0.29400
C          C       0.04540   0.44060   0.60080
C          C       0.81710   0.56060   0.25050
C          C       0.15580   0.27840   0.62600
C          C       0.19670   0.23600   0.60750
C          C       0.23920   0.21060   0.63310
C          C       0.18910   0.22840   0.55800
C          C       0.28300   0.17740   0.61420
C          C       0.22990   0.19800   0.53930
C          C       0.28490   0.17360   0.56590
C          C       0.33430   0.13660   0.54610
C          C       0.40370   0.16500   0.52250
C          C       0.30060   0.06800   0.54520
C          C       0.45230   0.14140   0.50540
C          C       0.34160   0.03960   0.52590
C          C       0.22000   0.03360   0.56370
C          C       0.53400   0.17820   0.48420
C          C       0.41560   0.06940   0.50340
C          C       0.59650   0.22280   0.50540
C          C       0.54670   0.16560   0.43590
C          C       0.46260   0.03020   0.48700
C          C       0.66660   0.25820   0.48490
C          C       0.62030   0.20360   0.41440
C          C       0.68300   0.25120   0.44110
C          C       0.76880   0.27960   0.41820
C          C       0.91600   0.30240   0.27600
C          C       0.92040   0.31260   0.22750
C          C       0.99380   0.35320   0.20620
C          C       0.84330   0.28180   0.20090
C          C       0.99100   0.36760   0.15740
C          C       0.84290   0.29940   0.15550
C          C       0.91830   0.34460   0.13350
C          C       0.91990   0.36400   0.08440
C          C       0.86270   0.38160   0.06500
C          C       0.98370   0.36100   0.05710
C          C       0.79170   0.38660   0.09050
C          C       0.86780   0.40340   0.01660
C          C       0.99130   0.37620   0.01180
C          C       0.73710   0.40540   0.07090
C          C       0.81160   0.42480   0.99660
C          C       0.93520   0.40060   0.99080
C          C       0.06120   0.36820   0.98630
C          C       0.74160   0.42180   0.02310
C          C       0.81730   0.44180   0.95010
C          C       0.94220   0.42260   0.94590
C          C       0.13580   0.38360   0.00650
C          C       0.04840   0.33560   0.94340
C          C       0.67950   0.44520   0.00210
C          C       0.75390   0.46000   0.92910
C          C       0.88610   0.44180   0.92550
C          C       0.20450   0.37560   0.98530
C          C       0.11110   0.32340   0.92310
C          C       0.60680   0.44580   0.02670
C          C       0.69040   0.46080   0.95610
C          C       0.75660   0.48100   0.88080
C          C       0.18580   0.34160   0.94350
C          C       0.61770   0.47800   0.06980
C          C       0.53130   0.42520   0.00930
C          C       0.82630   0.53140   0.86310
C          C       0.68750   0.45500   0.85490
C          C       0.25410   0.32580   0.92040
C          C       0.55030   0.47660   0.09440
C          C       0.46860   0.42400   0.02940
C          C       0.82030   0.55800   0.81930
C          C       0.67910   0.47980   0.81090
C          C       0.47240   0.45220   0.07340
C          C       0.75050   0.53460   0.79400
C          C       0.39520   0.44060   0.10080
C          C       0.74350   0.56060   0.75050
C          C       0.30200   0.96040   0.52590
C          C       0.18640   0.96640   0.56370
C          C       0.34620   0.93060   0.50340
C          C       0.23260   0.93200   0.54520
C          C       0.43240   0.96980   0.48700
C          C       0.31090   0.85860   0.50540
C          C       0.19770   0.86340   0.54610
C          C       0.23870   0.83500   0.52250
C          C       0.35580   0.82180   0.48420
C          C       0.11130   0.82640   0.56590
C          C       0.37370   0.77720   0.50540
C          C       0.38110   0.83440   0.43590
C          C       0.10560   0.82260   0.61420
C          C       0.03190   0.80200   0.53930
C          C       0.40840   0.74180   0.48490
C          C       0.41670   0.79640   0.41440
C          C       0.02860   0.78940   0.63310
C          C       0.96070   0.77160   0.55800
C          C       0.43180   0.74880   0.44110
C          C       0.96070   0.76400   0.60750
C          C       0.48920   0.72040   0.41820
C          C       0.87740   0.72160   0.62600
C          C       0.61360   0.69760   0.27600
C          C       0.60780   0.68740   0.22750
C          C       0.64060   0.64680   0.20620
C          C       0.56150   0.71820   0.20090
C          C       0.62340   0.63240   0.15740
C          C       0.54350   0.70060   0.15550
C          C       0.57370   0.65540   0.13350
C          C       0.55590   0.63600   0.08440
C          C       0.48110   0.61840   0.06500
C          C       0.62270   0.63900   0.05710
C          C       0.40510   0.61340   0.09050
C          C       0.46440   0.59660   0.01660
C          C       0.61510   0.62380   0.01180
C          C       0.33170   0.59460   0.07090
C          C       0.38680   0.57520   0.99660
C          C       0.53460   0.59940   0.99080
C          C       0.69300   0.63180   0.98630
C          C       0.31980   0.57820   0.02310
C          C       0.37550   0.55820   0.95010
C          C       0.51960   0.57740   0.94590
C          C       0.75220   0.61640   0.00650
C          C       0.71280   0.66440   0.94340
C          C       0.23430   0.55480   0.00210
C          C       0.29390   0.54000   0.92910
C          C       0.44430   0.55820   0.92550
C          C       0.82890   0.62440   0.98530
C          C       0.78770   0.67660   0.92310
C          C       0.16100   0.55420   0.02670
C          C       0.22960   0.53920   0.95610
C          C       0.27560   0.51900   0.88080
C          C       0.84420   0.65840   0.94350
C          C       0.13970   0.52200   0.06980
C          C       0.10610   0.57480   0.00930
C          C       0.29490   0.46860   0.86310
C          C       0.23250   0.54500   0.85490
C          C       0.92830   0.67420   0.92040
C          C       0.07370   0.52340   0.09440
C          C       0.04460   0.57600   0.02940
C          C       0.26230   0.44200   0.81930
C          C       0.19930   0.52020   0.81090
C          C       0.02020   0.54780   0.07340
C          C       0.21590   0.46540   0.79400
C          C       0.95460   0.55940   0.10080
C          C       0.18290   0.43940   0.75050
H          H       0.76050   0.78440   0.16480
H          H       0.84350   0.75560   0.04090
H          H       0.68990   0.84200   0.13250
H          H       0.77480   0.80900   0.00780
H          H       0.58070   0.79060   0.01760
H          H       0.80980   0.94360   0.07570
H          H       0.40900   0.77020   0.03640
H          H       0.49430   0.86740   0.91990
H          H       0.48360   0.94800   0.97640
H          H       0.29280   0.71000   0.00210
H          H       0.37150   0.80200   0.88350
H          H       0.95690   0.62940   0.72260
H          H       0.20390   0.74860   0.71440
H          H       0.96030   0.60720   0.64240
H          H       0.20600   0.71780   0.63870
H          H       0.97750   0.65220   0.57050
H          H       0.21410   0.62380   0.62150
H          H       0.30560   0.59200   0.58850
H          H       0.01210   0.57560   0.42890
H          H       0.85700   0.59940   0.53610
H          H       0.00280   0.67740   0.42900
H          H       0.10680   0.54500   0.39500
H          H       0.74290   0.60860   0.49810
H          H       0.89790   0.69780   0.39490
H          H       0.34880   0.52680   0.44220
H          H       0.32930   0.49980   0.58140
H          H       0.47540   0.59000   0.47930
H          H       0.12440   0.45260   0.37950
H          H       0.35680   0.58080   0.36630
H          H       0.44370   0.50860   0.62460
H          H       0.58260   0.59580   0.51510
H          H       0.13400   0.40720   0.30800
H          H       0.36940   0.53820   0.29390
H          H       0.86620   0.05640   0.07570
H          H       0.53560   0.05200   0.97640
H          H       0.79010   0.20940   0.01760
H          H       0.63880   0.22980   0.03640
H          H       0.62690   0.13260   0.91990
H          H       0.84790   0.15800   0.13250
H          H       0.96580   0.19100   0.00780
H          H       0.58280   0.29000   0.00210
H          H       0.56950   0.19800   0.88350
H          H       0.97610   0.21560   0.16480
H          H       0.08790   0.24440   0.04090
H          H       0.32750   0.37060   0.72260
H          H       0.45530   0.25140   0.71440
H          H       0.35310   0.39280   0.64240
H          H       0.48820   0.28220   0.63870
H          H       0.32530   0.34780   0.57050
H          H       0.59030   0.37620   0.62150
H          H       0.71360   0.40800   0.58850
H          H       0.43650   0.42440   0.42890
H          H       0.25760   0.40060   0.53610
H          H       0.32540   0.32260   0.42900
H          H       0.56180   0.45500   0.39500
H          H       0.13430   0.39140   0.49810
H          H       0.20010   0.30220   0.39490
H          H       0.82200   0.47320   0.44220
H          H       0.82950   0.50020   0.58140
H          H       0.88540   0.41000   0.47930
H          H       0.67180   0.54740   0.37950
H          H       0.77600   0.41920   0.36630
H          H       0.93510   0.49140   0.62460
H          H       0.98680   0.40420   0.51510
H          H       0.72680   0.59280   0.30800
H          H       0.83120   0.46180   0.29390
H          H       0.23950   0.21560   0.66480
H          H       0.15650   0.24440   0.54090
H          H       0.31010   0.15800   0.63250
H          H       0.22520   0.19100   0.50780
H          H       0.41930   0.20940   0.51760
H          H       0.19020   0.05640   0.57570
H          H       0.59100   0.22980   0.53640
H          H       0.50570   0.13260   0.41990
H          H       0.51640   0.05200   0.47640
H          H       0.70720   0.29000   0.50210
H          H       0.62850   0.19800   0.38350
H          H       0.04310   0.37060   0.22260
H          H       0.79610   0.25140   0.21440
H          H       0.03970   0.39280   0.14240
H          H       0.79400   0.28220   0.13870
H          H       0.02250   0.34780   0.07050
H          H       0.78590   0.37620   0.12150
H          H       0.69440   0.40800   0.08850
H          H       0.98790   0.42440   0.92890
H          H       0.14300   0.40060   0.03610
H          H       0.99720   0.32260   0.92900
H          H       0.89320   0.45500   0.89500
H          H       0.25710   0.39140   0.99810
H          H       0.10210   0.30220   0.89490
H          H       0.65120   0.47320   0.94220
H          H       0.67070   0.50020   0.08140
H          H       0.52460   0.41000   0.97930
H          H       0.87560   0.54740   0.87950
H          H       0.64320   0.41920   0.86630
H          H       0.55630   0.49140   0.12460
H          H       0.41740   0.40420   0.01510
H          H       0.86600   0.59280   0.80800
H          H       0.63060   0.46180   0.79390
H          H       0.13380   0.94360   0.57570
H          H       0.46440   0.94800   0.47640
H          H       0.20990   0.79060   0.51760
H          H       0.36120   0.77020   0.53640
H          H       0.37310   0.86740   0.41990
H          H       0.15210   0.84200   0.63250
H          H       0.03420   0.80900   0.50780
H          H       0.41720   0.71000   0.50210
H          H       0.43050   0.80200   0.38350
H          H       0.02390   0.78440   0.66480
H          H       0.91210   0.75560   0.54090
H          H       0.67250   0.62940   0.22260
H          H       0.54470   0.74860   0.21440
H          H       0.64690   0.60720   0.14240
H          H       0.51180   0.71780   0.13870
H          H       0.67470   0.65220   0.07050
H          H       0.40970   0.62380   0.12150
H          H       0.28640   0.59200   0.08850
H          H       0.56350   0.57560   0.92890
H          H       0.74240   0.59940   0.03610
H          H       0.67460   0.67740   0.92900
H          H       0.43820   0.54500   0.89500
H          H       0.86570   0.60860   0.99810
H          H       0.79990   0.69780   0.89490
H          H       0.17800   0.52680   0.94220
H          H       0.17050   0.49980   0.08140
H          H       0.11460   0.59000   0.97930
H          H       0.32820   0.45260   0.87950
H          H       0.22400   0.58080   0.86630
H          H       0.06490   0.50860   0.12460
H          H       0.01320   0.59580   0.01510
H          H       0.27320   0.40720   0.80800
H          H       0.16880   0.53820   0.79390
O          O       0.83230   0.70440   0.16960
O          O       0.77120   0.56160   0.14310
O          O       0.87830   0.69420   0.10260
O          O       0.97020   0.66200   0.17840
O          O       0.93720   0.53480   0.14020
O          O       0.91980   0.59440   0.08570
O          O       0.81220   0.61200   0.23690
O          O       0.85250   0.53440   0.22450
O          O       0.22540   0.71160   0.87590
O          O       0.16660   0.70420   0.94310
O          O       0.01410   0.68720   0.79880
O          O       0.14770   0.71760   0.79900
O          O       0.10740   0.77980   0.87790
O          O       0.05210   0.61320   0.86930
O          O       0.93690   0.69040   0.87880
O          O       0.98880   0.67060   0.94210
O          O       0.51380   0.28840   0.87590
O          O       0.46240   0.29580   0.94310
O          O       0.12790   0.29560   0.16960
O          O       0.18410   0.30580   0.10260
O          O       0.32690   0.31280   0.79880
O          O       0.43010   0.28240   0.79900
O          O       0.32760   0.22020   0.87790
O          O       0.43890   0.38680   0.86930
O          O       0.24650   0.30960   0.87880
O          O       0.31820   0.32940   0.94210
O          O       0.20960   0.43840   0.14310
O          O       0.30820   0.33800   0.17840
O          O       0.40240   0.46520   0.14020
O          O       0.32540   0.40560   0.08570
O          O       0.20020   0.38800   0.23690
O          O       0.31810   0.46560   0.22450
O          O       0.75350   0.69040   0.37880
O          O       0.68180   0.67060   0.44210
O          O       0.59760   0.53480   0.64020
O          O       0.67460   0.59440   0.58570
O          O       0.06310   0.30960   0.37880
O          O       0.01120   0.32940   0.44210
O          O       0.06280   0.46520   0.64020
O          O       0.08020   0.40560   0.58570
O          O       0.16770   0.29560   0.66960
O          O       0.22880   0.43840   0.64310
O          O       0.12170   0.30580   0.60260
O          O       0.02980   0.33800   0.67840
O          O       0.18780   0.38800   0.73690
O          O       0.14750   0.46560   0.72450
O          O       0.77460   0.28840   0.37590
O          O       0.83340   0.29580   0.44310
O          O       0.98590   0.31280   0.29880
O          O       0.85230   0.28240   0.29900
O          O       0.89260   0.22020   0.37790
O          O       0.94790   0.38680   0.36930
O          O       0.48620   0.71160   0.37590
O          O       0.53760   0.70420   0.44310
O          O       0.87210   0.70440   0.66960
O          O       0.81590   0.69420   0.60260
O          O       0.67310   0.68720   0.29880
O          O       0.56990   0.71760   0.29900
O          O       0.67240   0.77980   0.37790
O          O       0.56110   0.61320   0.36930
O          O       0.79040   0.56160   0.64310
O          O       0.69180   0.66200   0.67840
O          O       0.79980   0.61200   0.73690
O          O       0.68190   0.53440   0.72450
U          U       0.87150   0.61160   0.16010
U          U       0.07930   0.69580   0.87390
U          U       0.38350   0.30420   0.87390
U          U       0.25990   0.38840   0.16010
U          U       0.61650   0.69580   0.37390
U          U       0.74010   0.61160   0.66010
U          U       0.92070   0.30420   0.37390
U          U       0.12840   0.38840   0.66010
