data_crystal

_cell_length_a    17.32040
_cell_length_b    16.03500
_cell_length_c    21.64900
_cell_angle_alpha 90.00000
_cell_angle_beta  100.77000
_cell_angle_gamma 90.00000

_symmetry_space_group_name_Hall 'P 1'
_symmetry_space_group_name_H-M  'P 1'

loop_
_symmetry_equiv_pos_as_xyz
 'x,y,z'

loop_
_atom_site_label
_atom_site_type_symbol
_atom_site_fract_x
_atom_site_fract_y
_atom_site_fract_z
Cd         Cd      0.25000   0.95240   0.25000
C          C       0.18620   0.84410   0.32420
C          C       0.15200   0.78460   0.36610
C          C       0.11630   0.71220   0.33970
H          H       0.11330   0.70270   0.29690
C          C       0.08510   0.65380   0.37490
C          C       0.08770   0.66730   0.43960
C          C       0.05720   0.60970   0.47940
H          H       0.03430   0.56050   0.46210
C          C       0.18970   0.87580   0.45930
H          H       0.20970   0.91550   0.43520
C          C       0.15620   0.80060   0.43000
C          C       0.12360   0.74200   0.46750
C          C       0.04740   0.57760   0.34050
O          O       0.14260   0.87870   0.28140
O          O       0.25760   0.85570   0.33410
O          O       0.08510   0.54360   0.30430
O          O       0.48270   0.55410   0.34820
C          C       0.06380   0.65590   0.67580
C          C       0.09800   0.71540   0.63390
C          C       0.13380   0.78780   0.66030
H          H       0.13680   0.79730   0.70310
C          C       0.16500   0.84620   0.62510
C          C       0.16230   0.83270   0.56040
C          C       0.19280   0.89030   0.52060
H          H       0.21570   0.93950   0.53790
C          C       0.06040   0.62420   0.54070
H          H       0.04030   0.58450   0.56480
C          C       0.09390   0.69940   0.57000
C          C       0.12630   0.75800   0.53250
C          C       0.20260   0.92240   0.65950
O          O       0.10740   0.62130   0.71860
O          O       0.49240   0.64430   0.66590
O          O       0.16490   0.95640   0.69570
O          O       0.26730   0.94590   0.65180
Cd         Cd      1.00000   0.45240   0.25000
Cd         Cd      0.25000   0.04760   0.75000
Cd         Cd      0.00000   0.54760   0.75000
O          O       0.35740   0.87870   0.21860
O          O       0.24240   0.85570   0.16590
O          O       0.33510   0.04360   0.30430
O          O       0.16490   0.04360   0.19570
O          O       0.23270   0.05410   0.34820
O          O       0.26730   0.05410   0.15180
C          C       0.31370   0.84410   0.17580
C          C       0.34800   0.78460   0.13390
C          C       0.38370   0.71220   0.16030
H          H       0.38670   0.70270   0.20310
C          C       0.41490   0.65380   0.12510
C          C       0.41230   0.66730   0.06040
C          C       0.44280   0.60970   0.02060
H          H       0.46560   0.56050   0.03790
C          C       0.31040   0.87580   0.04070
H          H       0.29030   0.91550   0.06480
C          C       0.34380   0.80060   0.07000
C          C       0.37640   0.74200   0.03250
C          C       0.45260   0.57760   0.15950
O          O       0.41490   0.54360   0.19570
O          O       0.01730   0.55410   0.15180
C          C       0.43630   0.65590   0.82420
C          C       0.40200   0.71540   0.86610
C          C       0.36620   0.78780   0.83970
H          H       0.36320   0.79730   0.79690
C          C       0.33500   0.84620   0.87490
C          C       0.33770   0.83270   0.93960
C          C       0.30720   0.89030   0.97940
H          H       0.28430   0.93950   0.96210
C          C       0.43960   0.62420   0.95930
H          H       0.45970   0.58450   0.93520
C          C       0.40620   0.69940   0.93000
C          C       0.37370   0.75800   0.96750
C          C       0.29740   0.92240   0.84050
O          O       0.39260   0.62130   0.78140
O          O       0.00760   0.64430   0.83410
O          O       0.33510   0.95640   0.80430
O          O       0.23270   0.94590   0.84820
C          C       0.43630   0.34410   0.32420
C          C       0.40200   0.28460   0.36610
C          C       0.36630   0.21220   0.33970
H          H       0.36330   0.20270   0.29690
C          C       0.33510   0.15380   0.37490
C          C       0.33770   0.16730   0.43960
C          C       0.30720   0.10970   0.47940
H          H       0.28430   0.06050   0.46210
C          C       0.43960   0.37580   0.45930
H          H       0.45970   0.41550   0.43520
C          C       0.40620   0.30060   0.43000
C          C       0.37360   0.24200   0.46750
C          C       0.29740   0.07760   0.34050
O          O       0.39260   0.37870   0.28140
O          O       0.00760   0.35570   0.33410
C          C       0.31370   0.15590   0.67580
C          C       0.34800   0.21540   0.63390
C          C       0.38380   0.28780   0.66030
H          H       0.38680   0.29730   0.70310
C          C       0.41500   0.34620   0.62510
C          C       0.41230   0.33270   0.56040
C          C       0.44280   0.39030   0.52060
H          H       0.46570   0.43950   0.53790
C          C       0.31040   0.12420   0.54070
H          H       0.29030   0.08450   0.56480
C          C       0.34380   0.19940   0.57000
C          C       0.37630   0.25800   0.53250
C          C       0.45260   0.42240   0.65950
O          O       0.35740   0.12130   0.71860
O          O       0.24240   0.14430   0.66590
O          O       0.41490   0.45640   0.69570
O          O       0.01730   0.44590   0.65180
O          O       0.10740   0.37870   0.21860
O          O       0.49240   0.35570   0.16590
C          C       0.06380   0.34410   0.17580
C          C       0.09800   0.28460   0.13390
C          C       0.13370   0.21220   0.16030
H          H       0.13670   0.20270   0.20310
C          C       0.16490   0.15380   0.12510
C          C       0.16230   0.16730   0.06040
C          C       0.19280   0.10970   0.02060
H          H       0.21570   0.06050   0.03790
C          C       0.06030   0.37580   0.04070
H          H       0.04030   0.41550   0.06480
C          C       0.09380   0.30060   0.07000
C          C       0.12640   0.24200   0.03250
C          C       0.20260   0.07760   0.15950
C          C       0.18620   0.15590   0.82420
C          C       0.15200   0.21540   0.86610
C          C       0.11620   0.28780   0.83970
H          H       0.11320   0.29730   0.79690
C          C       0.08500   0.34620   0.87490
C          C       0.08770   0.33270   0.93960
C          C       0.05720   0.39030   0.97940
H          H       0.03430   0.43950   0.96210
C          C       0.18960   0.12420   0.95930
H          H       0.20970   0.08450   0.93520
C          C       0.15620   0.19940   0.93000
C          C       0.12370   0.25800   0.96750
C          C       0.04740   0.42240   0.84050
O          O       0.14260   0.12130   0.78140
O          O       0.25760   0.14430   0.83410
O          O       0.08510   0.45640   0.80430
O          O       0.48270   0.44590   0.84820
Cd         Cd      0.75000   0.95240   0.25000
C          C       0.68630   0.84410   0.32420
C          C       0.65200   0.78460   0.36610
C          C       0.61620   0.71220   0.33970
H          H       0.61320   0.70270   0.29690
C          C       0.58500   0.65380   0.37490
C          C       0.58770   0.66730   0.43960
C          C       0.55720   0.60970   0.47940
H          H       0.53430   0.56050   0.46210
C          C       0.68960   0.87580   0.45930
H          H       0.70970   0.91550   0.43520
C          C       0.65620   0.80060   0.43000
C          C       0.62370   0.74200   0.46750
C          C       0.54740   0.57760   0.34050
O          O       0.64260   0.87870   0.28140
O          O       0.75760   0.85570   0.33410
O          O       0.58510   0.54360   0.30430
O          O       0.98270   0.55410   0.34820
C          C       0.56370   0.65590   0.67580
C          C       0.59800   0.71540   0.63390
C          C       0.63380   0.78780   0.66030
H          H       0.63680   0.79730   0.70310
C          C       0.66500   0.84620   0.62510
C          C       0.66230   0.83270   0.56040
C          C       0.69280   0.89030   0.52060
H          H       0.71570   0.93950   0.53790
C          C       0.56040   0.62420   0.54070
H          H       0.54030   0.58450   0.56480
C          C       0.59380   0.69940   0.57000
C          C       0.62630   0.75800   0.53250
C          C       0.70260   0.92240   0.65950
O          O       0.60740   0.62130   0.71860
O          O       0.99240   0.64430   0.66590
O          O       0.66490   0.95640   0.69570
O          O       0.76730   0.94590   0.65180
Cd         Cd      0.50000   0.45240   0.25000
Cd         Cd      0.75000   0.04760   0.75000
Cd         Cd      0.50000   0.54760   0.75000
O          O       0.85740   0.87870   0.21860
O          O       0.74240   0.85570   0.16590
O          O       0.83510   0.04360   0.30430
O          O       0.66490   0.04360   0.19570
O          O       0.73270   0.05410   0.34820
O          O       0.76730   0.05410   0.15180
C          C       0.81370   0.84410   0.17580
C          C       0.84800   0.78460   0.13390
C          C       0.88380   0.71220   0.16030
H          H       0.88670   0.70270   0.20310
C          C       0.91490   0.65380   0.12510
C          C       0.91230   0.66730   0.06040
C          C       0.94280   0.60970   0.02060
H          H       0.96560   0.56050   0.03790
C          C       0.81040   0.87580   0.04070
H          H       0.79030   0.91550   0.06480
C          C       0.84380   0.80060   0.07000
C          C       0.87630   0.74200   0.03250
C          C       0.95260   0.57760   0.15950
O          O       0.91490   0.54360   0.19570
O          O       0.51730   0.55410   0.15180
C          C       0.93630   0.65590   0.82420
C          C       0.90200   0.71540   0.86610
C          C       0.86620   0.78780   0.83970
H          H       0.86320   0.79730   0.79690
C          C       0.83500   0.84620   0.87490
C          C       0.83770   0.83270   0.93960
C          C       0.80720   0.89030   0.97940
H          H       0.78430   0.93950   0.96210
C          C       0.93960   0.62420   0.95930
H          H       0.95970   0.58450   0.93520
C          C       0.90620   0.69940   0.93000
C          C       0.87370   0.75790   0.96750
C          C       0.79740   0.92230   0.84050
O          O       0.89260   0.62130   0.78140
O          O       0.50760   0.64430   0.83410
O          O       0.83510   0.95640   0.80430
O          O       0.73270   0.94590   0.84820
C          C       0.93630   0.34410   0.32420
C          C       0.90200   0.28460   0.36610
C          C       0.86620   0.21220   0.33970
H          H       0.86330   0.20270   0.29690
C          C       0.83510   0.15380   0.37490
C          C       0.83770   0.16730   0.43960
C          C       0.80720   0.10970   0.47940
H          H       0.78430   0.06050   0.46210
C          C       0.93960   0.37580   0.45930
H          H       0.95970   0.41550   0.43520
C          C       0.90620   0.30060   0.43000
C          C       0.87370   0.24200   0.46750
C          C       0.79740   0.07760   0.34050
O          O       0.89260   0.37870   0.28140
O          O       0.50760   0.35570   0.33410
C          C       0.81370   0.15590   0.67580
C          C       0.84800   0.21540   0.63390
C          C       0.88380   0.28780   0.66030
H          H       0.88680   0.29730   0.70310
C          C       0.91500   0.34620   0.62510
C          C       0.91230   0.33270   0.56040
C          C       0.94280   0.39030   0.52060
H          H       0.96570   0.43950   0.53790
C          C       0.81040   0.12420   0.54070
H          H       0.79030   0.08450   0.56480
C          C       0.84380   0.19940   0.57000
C          C       0.87630   0.25800   0.53250
C          C       0.95260   0.42240   0.65950
O          O       0.85740   0.12130   0.71860
O          O       0.74240   0.14430   0.66590
O          O       0.91490   0.45640   0.69570
O          O       0.51730   0.44590   0.65180
O          O       0.60740   0.37870   0.21860
O          O       0.99240   0.35570   0.16590
C          C       0.56370   0.34410   0.17580
C          C       0.59800   0.28460   0.13390
C          C       0.63380   0.21220   0.16030
H          H       0.63670   0.20270   0.20310
C          C       0.66490   0.15380   0.12510
C          C       0.66230   0.16730   0.06040
C          C       0.69280   0.10970   0.02060
H          H       0.71570   0.06050   0.03790
C          C       0.56040   0.37580   0.04070
H          H       0.54030   0.41550   0.06480
C          C       0.59380   0.30060   0.07000
C          C       0.62630   0.24200   0.03250
C          C       0.70260   0.07760   0.15950
C          C       0.68630   0.15590   0.82420
C          C       0.65200   0.21540   0.86610
C          C       0.61620   0.28780   0.83970
H          H       0.61320   0.29730   0.79690
C          C       0.58500   0.34620   0.87490
C          C       0.58770   0.33270   0.93960
C          C       0.55720   0.39030   0.97940
H          H       0.53430   0.43950   0.96210
C          C       0.68960   0.12420   0.95930
H          H       0.70970   0.08450   0.93520
C          C       0.65620   0.19940   0.93000
C          C       0.62370   0.25800   0.96750
C          C       0.54740   0.42240   0.84050
O          O       0.64260   0.12130   0.78140
O          O       0.75760   0.14430   0.83410
O          O       0.58510   0.45640   0.80430
O          O       0.98270   0.44590   0.84820
