data_crystal

_cell_length_a    22.87500
_cell_length_b    11.70400
_cell_length_c    38.76400
_cell_angle_alpha 90.00000
_cell_angle_beta  90.00000
_cell_angle_gamma 90.00000

_symmetry_space_group_name_Hall 'P 1'
_symmetry_space_group_name_H-M  'P 1'

loop_
_symmetry_equiv_pos_as_xyz
 'x,y,z'

loop_
_atom_site_label
_atom_site_type_symbol
_atom_site_fract_x
_atom_site_fract_y
_atom_site_fract_z
Bi         Bi      0.07875   0.49080   0.38009
Bi         Bi      0.42125   0.00920   0.88009
Bi         Bi      0.57875   0.00920   0.61991
Bi         Bi      0.92125   0.49080   0.11991
Bi         Bi      0.92125   0.50920   0.61991
Bi         Bi      0.57875   0.99080   0.11991
Bi         Bi      0.42125   0.99080   0.38009
Bi         Bi      0.07875   0.50920   0.88009
O          O       0.57730   0.01480   0.18740
O          O       0.92270   0.48520   0.68740
O          O       0.07730   0.48520   0.81260
O          O       0.42270   0.01480   0.31260
O          O       0.42270   0.98520   0.81260
O          O       0.07730   0.51480   0.31260
O          O       0.92270   0.51480   0.18740
O          O       0.57730   0.98520   0.68740
O          O       0.17650   0.43820   0.38870
O          O       0.32350   0.06180   0.88870
O          O       0.67650   0.06180   0.61130
O          O       0.82350   0.43820   0.11130
O          O       0.82350   0.56180   0.61130
O          O       0.67650   0.93820   0.11130
O          O       0.32350   0.93820   0.38870
O          O       0.17650   0.56180   0.88870
O          O       0.18650   0.61600   0.37800
O          O       0.31350   0.88400   0.87800
O          O       0.68650   0.88400   0.62200
O          O       0.81350   0.61600   0.12200
O          O       0.81350   0.38400   0.62200
O          O       0.68650   0.11600   0.12200
O          O       0.31350   0.11600   0.37800
O          O       0.18650   0.38400   0.87800
O          O       0.57060   0.16200   0.58590
O          O       0.92940   0.33800   0.08590
O          O       0.07060   0.33800   0.41410
O          O       0.42940   0.16200   0.91410
O          O       0.42940   0.83800   0.41410
O          O       0.07060   0.66200   0.91410
O          O       0.92940   0.66200   0.58590
O          O       0.57060   0.83800   0.08590
O          O       0.56500   0.01410   0.55390
O          O       0.93500   0.48590   0.05390
O          O       0.06500   0.48590   0.44610
O          O       0.43500   0.01410   0.94610
O          O       0.43500   0.98590   0.44610
O          O       0.06500   0.51410   0.94610
O          O       0.93500   0.51410   0.55390
O          O       0.56500   0.98590   0.05390
O          O       0.58960   0.85380   0.15950
O          O       0.91040   0.64620   0.65950
O          O       0.08960   0.64620   0.84050
O          O       0.41040   0.85380   0.34050
O          O       0.41040   0.14620   0.84050
O          O       0.08960   0.35380   0.34050
O          O       0.91040   0.35380   0.15950
O          O       0.58960   0.14620   0.65950
O          O       0.98290   0.63120   0.38000
O          O       0.51710   0.86880   0.88000
O          O       0.48290   0.86880   0.62000
O          O       0.01710   0.63120   0.12000
O          O       0.01710   0.36880   0.62000
O          O       0.48290   0.13120   0.12000
O          O       0.51710   0.13120   0.38000
O          O       0.98290   0.36880   0.88000
O          O       0.97830   0.45270   0.37220
O          O       0.52170   0.04730   0.87220
O          O       0.47830   0.04730   0.62780
O          O       0.02170   0.45270   0.12780
O          O       0.02170   0.54730   0.62780
O          O       0.47830   0.95270   0.12780
O          O       0.52170   0.95270   0.37220
O          O       0.97830   0.54730   0.87220
C          C       0.20600   0.52650   0.38120
C          C       0.29400   0.97350   0.88120
C          C       0.70600   0.97350   0.61880
C          C       0.79400   0.52650   0.11880
C          C       0.79400   0.47350   0.61880
C          C       0.70600   0.02650   0.11880
C          C       0.29400   0.02650   0.38120
C          C       0.20600   0.47350   0.88120
C          C       0.27230   0.51010   0.38440
C          C       0.22770   0.98990   0.88440
C          C       0.77230   0.98990   0.61560
C          C       0.72770   0.51010   0.11560
C          C       0.72770   0.48990   0.61560
C          C       0.77230   0.01010   0.11560
C          C       0.22770   0.01010   0.38440
C          C       0.27230   0.48990   0.88440
C          C       0.30760   0.60850   0.38290
C          C       0.19240   0.89150   0.88290
C          C       0.80760   0.89150   0.61710
C          C       0.69240   0.60850   0.11710
C          C       0.69240   0.39150   0.61710
C          C       0.80760   0.10850   0.11710
C          C       0.19240   0.10850   0.38290
C          C       0.30760   0.39150   0.88290
H          H       0.29052   0.67960   0.37936
H          H       0.20948   0.82040   0.87936
H          H       0.79052   0.82040   0.62064
H          H       0.70948   0.67960   0.12064
H          H       0.70948   0.32040   0.62064
H          H       0.79052   0.17960   0.12064
H          H       0.20948   0.17960   0.37936
H          H       0.29052   0.32040   0.87936
C          C       0.36780   0.60010   0.38650
C          C       0.13220   0.89990   0.88650
C          C       0.86780   0.89990   0.61350
C          C       0.63220   0.60010   0.11350
C          C       0.63220   0.39990   0.61350
C          C       0.86780   0.10010   0.11350
C          C       0.13220   0.10010   0.38650
C          C       0.36780   0.39990   0.88650
H          H       0.39116   0.66516   0.38673
H          H       0.10884   0.83484   0.88673
H          H       0.89116   0.83484   0.61327
H          H       0.60884   0.66516   0.11327
H          H       0.60884   0.33484   0.61327
H          H       0.89116   0.16516   0.11327
H          H       0.10884   0.16516   0.38673
H          H       0.39116   0.33484   0.88673
C          C       0.39160   0.49460   0.38970
C          C       0.10840   0.00540   0.88970
C          C       0.89160   0.00540   0.61030
C          C       0.60840   0.49460   0.11030
C          C       0.60840   0.50540   0.61030
C          C       0.89160   0.99460   0.11030
C          C       0.10840   0.99460   0.38970
C          C       0.39160   0.50540   0.88970
C          C       0.35510   0.40000   0.39230
C          C       0.14490   0.10000   0.89230
C          C       0.85510   0.10000   0.60770
C          C       0.64490   0.40000   0.10770
C          C       0.64490   0.60000   0.60770
C          C       0.85510   0.90000   0.10770
C          C       0.14490   0.90000   0.39230
C          C       0.35510   0.60000   0.89230
H          H       0.37196   0.32843   0.39524
H          H       0.12804   0.17157   0.89524
H          H       0.87196   0.17157   0.60476
H          H       0.62804   0.32843   0.10476
H          H       0.62804   0.67157   0.60476
H          H       0.87196   0.82843   0.10476
H          H       0.12804   0.82843   0.39524
H          H       0.37196   0.67157   0.89524
C          C       0.29490   0.40740   0.39060
C          C       0.20510   0.09260   0.89060
C          C       0.79490   0.09260   0.60940
C          C       0.70510   0.40740   0.10940
C          C       0.70510   0.59260   0.60940
C          C       0.79490   0.90740   0.10940
C          C       0.20510   0.90740   0.39060
C          C       0.29490   0.59260   0.89060
H          H       0.27127   0.34352   0.39377
H          H       0.22873   0.15648   0.89377
H          H       0.77127   0.15648   0.60623
H          H       0.72873   0.34352   0.10623
H          H       0.72873   0.65648   0.60623
H          H       0.77127   0.84352   0.10623
H          H       0.22873   0.84352   0.39377
H          H       0.27127   0.65648   0.89377
C          C       0.56490   0.11490   0.55630
C          C       0.93510   0.38510   0.05630
C          C       0.06490   0.38510   0.44370
C          C       0.43510   0.11490   0.94370
C          C       0.43510   0.88510   0.44370
C          C       0.06490   0.61490   0.94370
C          C       0.93510   0.61490   0.55630
C          C       0.56490   0.88510   0.05630
C          C       0.55810   0.19290   0.52640
C          C       0.94190   0.30710   0.02640
C          C       0.05810   0.30710   0.47360
C          C       0.44190   0.19290   0.97360
C          C       0.44190   0.80710   0.47360
C          C       0.05810   0.69290   0.97360
C          C       0.94190   0.69290   0.52640
C          C       0.55810   0.80710   0.02640
C          C       0.56380   0.30650   0.52810
C          C       0.93620   0.19350   0.02810
C          C       0.06380   0.19350   0.47190
C          C       0.43620   0.30650   0.97190
C          C       0.43620   0.69350   0.47190
C          C       0.06380   0.80650   0.97190
C          C       0.93620   0.80650   0.52810
C          C       0.56380   0.69350   0.02810
H          H       0.57124   0.34056   0.54938
H          H       0.92876   0.15944   0.04938
H          H       0.07124   0.15944   0.45062
H          H       0.42876   0.34056   0.95062
H          H       0.42876   0.65944   0.45062
H          H       0.07124   0.84056   0.95062
H          H       0.92876   0.84056   0.54938
H          H       0.57124   0.65944   0.04938
C          C       0.55890   0.37620   0.49840
C          C       0.94110   0.12380   0.99840
C          C       0.05890   0.12380   0.50160
C          C       0.44110   0.37620   0.00160
C          C       0.44110   0.62380   0.50160
C          C       0.05890   0.87620   0.00160
C          C       0.94110   0.87620   0.49840
C          C       0.55890   0.62380   0.99840
H          H       0.56736   0.45384   0.49968
H          H       0.93264   0.04616   0.99968
H          H       0.06736   0.04616   0.50032
H          H       0.43264   0.45384   0.00032
H          H       0.43264   0.54616   0.50032
H          H       0.06736   0.95384   0.00032
H          H       0.93264   0.95384   0.49968
H          H       0.56736   0.54616   0.99968
C          C       0.54170   0.32830   0.46780
C          C       0.95830   0.17170   0.96780
C          C       0.04170   0.17170   0.53220
C          C       0.45830   0.32830   0.03220
C          C       0.45830   0.67170   0.53220
C          C       0.04170   0.82830   0.03220
C          C       0.95830   0.82830   0.46780
C          C       0.54170   0.67170   0.96780
C          C       0.53240   0.21790   0.46600
C          C       0.96760   0.28210   0.96600
C          C       0.03240   0.28210   0.53400
C          C       0.46760   0.21790   0.03400
C          C       0.46760   0.78210   0.53400
C          C       0.03240   0.71790   0.03400
C          C       0.96760   0.71790   0.46600
C          C       0.53240   0.78210   0.96600
H          H       0.52417   0.18473   0.44479
H          H       0.97583   0.31527   0.94479
H          H       0.02417   0.31527   0.55521
H          H       0.47583   0.18473   0.05521
H          H       0.47583   0.81527   0.55521
H          H       0.02417   0.68473   0.05521
H          H       0.97583   0.68473   0.44479
H          H       0.52417   0.81527   0.94479
C          C       0.53450   0.15200   0.49410
C          C       0.96550   0.34800   0.99410
C          C       0.03450   0.34800   0.50590
C          C       0.46550   0.15200   0.00590
C          C       0.46550   0.84800   0.50590
C          C       0.03450   0.65200   0.00590
C          C       0.96550   0.65200   0.49410
C          C       0.53450   0.84800   0.99410
H          H       0.52036   0.07796   0.49279
H          H       0.97964   0.42204   0.99279
H          H       0.02036   0.42204   0.50721
H          H       0.47964   0.07796   0.00721
H          H       0.47964   0.92204   0.50721
H          H       0.02036   0.57796   0.00721
H          H       0.97964   0.57796   0.49279
H          H       0.52036   0.92204   0.99279
C          C       0.58760   0.91870   0.18740
C          C       0.91240   0.58130   0.68740
C          C       0.08760   0.58130   0.81260
C          C       0.41240   0.91870   0.31260
C          C       0.41240   0.08130   0.81260
C          C       0.08760   0.41870   0.31260
C          C       0.91240   0.41870   0.18740
C          C       0.58760   0.08130   0.68740
C          C       0.59230   0.84310   0.21970
C          C       0.90770   0.65690   0.71970
C          C       0.09230   0.65690   0.78030
C          C       0.40770   0.84310   0.28030
C          C       0.40770   0.15690   0.78030
C          C       0.09230   0.34310   0.28030
C          C       0.90770   0.34310   0.21970
C          C       0.59230   0.15690   0.71970
C          C       0.57810   0.89420   0.25090
C          C       0.92190   0.60580   0.75090
C          C       0.07810   0.60580   0.74910
C          C       0.42190   0.89420   0.24910
C          C       0.42190   0.10580   0.74910
C          C       0.07810   0.39420   0.24910
C          C       0.92190   0.39420   0.25090
C          C       0.57810   0.10580   0.75090
H          H       0.56025   0.96558   0.25125
H          H       0.93975   0.53442   0.75125
H          H       0.06025   0.53442   0.74875
H          H       0.43975   0.96558   0.24875
H          H       0.43975   0.03442   0.74875
H          H       0.06025   0.46558   0.24875
H          H       0.93975   0.46558   0.25125
H          H       0.56025   0.03442   0.75125
C          C       0.59060   0.83860   0.28180
C          C       0.90940   0.66140   0.78180
C          C       0.09060   0.66140   0.71820
C          C       0.40940   0.83860   0.21820
C          C       0.40940   0.16140   0.71820
C          C       0.09060   0.33860   0.21820
C          C       0.90940   0.33860   0.28180
C          C       0.59060   0.16140   0.78180
H          H       0.58116   0.87280   0.30268
H          H       0.91884   0.62720   0.80268
H          H       0.08116   0.62720   0.69732
H          H       0.41884   0.87280   0.19732
H          H       0.41884   0.12720   0.69732
H          H       0.08116   0.37280   0.19732
H          H       0.91884   0.37280   0.30268
H          H       0.58116   0.12720   0.80268
C          C       0.61730   0.73190   0.28130
C          C       0.88270   0.76810   0.78130
C          C       0.11730   0.76810   0.71870
C          C       0.38270   0.73190   0.21870
C          C       0.38270   0.26810   0.71870
C          C       0.11730   0.23190   0.21870
C          C       0.88270   0.23190   0.28130
C          C       0.61730   0.26810   0.78130
C          C       0.63150   0.68080   0.25000
C          C       0.86850   0.81920   0.75000
C          C       0.13150   0.81920   0.75000
C          C       0.36850   0.68080   0.25000
C          C       0.36850   0.31920   0.75000
C          C       0.13150   0.18080   0.25000
C          C       0.86850   0.18080   0.25000
C          C       0.63150   0.31920   0.75000
H          H       0.64930   0.60942   0.24971
H          H       0.85070   0.89058   0.74971
H          H       0.14930   0.89058   0.75029
H          H       0.35070   0.60942   0.25029
H          H       0.35070   0.39058   0.75029
H          H       0.14930   0.10942   0.25029
H          H       0.85070   0.10942   0.24971
H          H       0.64930   0.39058   0.74971
C          C       0.61890   0.73640   0.21920
C          C       0.88110   0.76360   0.71920
C          C       0.11890   0.76360   0.78080
C          C       0.38110   0.73640   0.28080
C          C       0.38110   0.26360   0.78080
C          C       0.11890   0.23640   0.28080
C          C       0.88110   0.23640   0.21920
C          C       0.61890   0.26360   0.71920
H          H       0.62840   0.70221   0.19828
H          H       0.87160   0.79779   0.69828
H          H       0.12840   0.79779   0.80172
H          H       0.37160   0.70221   0.30172
H          H       0.37160   0.29779   0.80172
H          H       0.12840   0.20221   0.30172
H          H       0.87160   0.20221   0.19828
H          H       0.62840   0.29779   0.69828
C          C       0.95860   0.54750   0.37360
C          C       0.54140   0.95250   0.87360
C          C       0.45860   0.95250   0.62640
C          C       0.04140   0.54750   0.12640
C          C       0.04140   0.45250   0.62640
C          C       0.45860   0.04750   0.12640
C          C       0.54140   0.04750   0.37360
C          C       0.95860   0.45250   0.87360
C          C       0.89100   0.55650   0.37020
C          C       0.60900   0.94350   0.87020
C          C       0.39100   0.94350   0.62980
C          C       0.10900   0.55650   0.12980
C          C       0.10900   0.44350   0.62980
C          C       0.39100   0.05650   0.12980
C          C       0.60900   0.05650   0.37020
C          C       0.89100   0.44350   0.87020
C          C       0.86490   0.66320   0.37340
C          C       0.63510   0.83680   0.87340
C          C       0.36490   0.83680   0.62660
C          C       0.13510   0.66320   0.12660
C          C       0.13510   0.33680   0.62660
C          C       0.36490   0.16320   0.12660
C          C       0.63510   0.16320   0.37340
C          C       0.86490   0.33680   0.87340
H          H       0.88744   0.72655   0.37918
H          H       0.61256   0.77345   0.87918
H          H       0.38744   0.77345   0.62082
H          H       0.11256   0.72655   0.12082
H          H       0.11256   0.27345   0.62082
H          H       0.38744   0.22655   0.12082
H          H       0.61256   0.22655   0.37918
H          H       0.88744   0.27345   0.87918
C          C       0.80510   0.67530   0.36800
C          C       0.69490   0.82470   0.86800
C          C       0.30510   0.82470   0.63200
C          C       0.19490   0.67530   0.13200
C          C       0.19490   0.32470   0.63200
C          C       0.30510   0.17530   0.13200
C          C       0.69490   0.17530   0.36800
C          C       0.80510   0.32470   0.86800
H          H       0.78770   0.74674   0.37019
H          H       0.71230   0.75326   0.87019
H          H       0.28770   0.75326   0.62981
H          H       0.21230   0.74674   0.12981
H          H       0.21230   0.25326   0.62981
H          H       0.28770   0.24674   0.12981
H          H       0.71230   0.24674   0.37019
H          H       0.78770   0.25326   0.87019
C          C       0.77150   0.58070   0.35940
C          C       0.72850   0.91930   0.85940
C          C       0.27150   0.91930   0.64060
C          C       0.22850   0.58070   0.14060
C          C       0.22850   0.41930   0.64060
C          C       0.27150   0.08070   0.14060
C          C       0.72850   0.08070   0.35940
C          C       0.77150   0.41930   0.85940
C          C       0.79750   0.47400   0.35620
C          C       0.70250   0.02600   0.85620
C          C       0.29750   0.02600   0.64380
C          C       0.20250   0.47400   0.14380
C          C       0.20250   0.52600   0.64380
C          C       0.29750   0.97400   0.14380
C          C       0.70250   0.97400   0.35620
C          C       0.79750   0.52600   0.85620
H          H       0.77502   0.41063   0.35040
H          H       0.72498   0.08937   0.85040
H          H       0.27502   0.08937   0.64960
H          H       0.22498   0.41063   0.14960
H          H       0.22498   0.58937   0.64960
H          H       0.27502   0.91063   0.14960
H          H       0.72498   0.91063   0.35040
H          H       0.77502   0.58937   0.85040
C          C       0.85730   0.46190   0.36160
C          C       0.64270   0.03810   0.86160
C          C       0.35730   0.03810   0.63840
C          C       0.14270   0.46190   0.13840
C          C       0.14270   0.53810   0.63840
C          C       0.35730   0.96190   0.13840
C          C       0.64270   0.96190   0.36160
C          C       0.85730   0.53810   0.86160
H          H       0.87475   0.39044   0.35939
H          H       0.62525   0.10956   0.85939
H          H       0.37475   0.10956   0.64061
H          H       0.12525   0.39044   0.14061
H          H       0.12525   0.60956   0.64061
H          H       0.37475   0.89045   0.14061
H          H       0.62525   0.89045   0.35939
H          H       0.87475   0.60956   0.85939
C          C       0.70640   0.59260   0.35160
C          C       0.79360   0.90740   0.85160
C          C       0.20640   0.90740   0.64840
C          C       0.29360   0.59260   0.14840
C          C       0.29360   0.40740   0.64840
C          C       0.20640   0.09260   0.14840
C          C       0.79360   0.09260   0.35160
C          C       0.70640   0.40740   0.85160
C          C       0.69050   0.66120   0.32450
C          C       0.80950   0.83880   0.82450
C          C       0.19050   0.83880   0.67550
C          C       0.30950   0.66120   0.17550
C          C       0.30950   0.33880   0.67550
C          C       0.19050   0.16120   0.17550
C          C       0.80950   0.16120   0.32450
C          C       0.69050   0.33880   0.82450
H          H       0.71910   0.70030   0.31220
H          H       0.78090   0.79970   0.81220
H          H       0.21910   0.79970   0.68780
H          H       0.28090   0.70030   0.18780
H          H       0.28090   0.29970   0.68780
H          H       0.21910   0.20030   0.18780
H          H       0.78090   0.20030   0.31220
H          H       0.71910   0.29970   0.81220
C          C       0.63370   0.67290   0.31540
C          C       0.86630   0.82710   0.81540
C          C       0.13370   0.82710   0.68460
C          C       0.36630   0.67290   0.18460
C          C       0.36630   0.32710   0.68460
C          C       0.13370   0.17290   0.18460
C          C       0.86630   0.17290   0.31540
C          C       0.63370   0.32710   0.81540
C          C       0.58920   0.62400   0.33540
C          C       0.91080   0.87600   0.83540
C          C       0.08920   0.87600   0.66460
C          C       0.41080   0.62400   0.16460
C          C       0.41080   0.37600   0.66460
C          C       0.08920   0.12400   0.16460
C          C       0.91080   0.12400   0.33540
C          C       0.58920   0.37600   0.83540
C          C       0.52930   0.63470   0.32580
C          C       0.97070   0.86530   0.82580
C          C       0.02930   0.86530   0.67420
C          C       0.47070   0.63470   0.17420
C          C       0.47070   0.36530   0.67420
C          C       0.02930   0.13470   0.17420
C          C       0.97070   0.13470   0.32580
C          C       0.52930   0.36530   0.82580
H          H       0.51929   0.67280   0.30555
H          H       0.98071   0.82720   0.80555
H          H       0.01929   0.82720   0.69445
H          H       0.48071   0.67280   0.19445
H          H       0.48071   0.32720   0.69445
H          H       0.01929   0.17280   0.19445
H          H       0.98071   0.17280   0.30555
H          H       0.51929   0.32720   0.80555
C          C       0.48630   0.58870   0.34630
C          C       0.01370   0.91130   0.84630
C          C       0.98630   0.91130   0.65370
C          C       0.51370   0.58870   0.15370
C          C       0.51370   0.41130   0.65370
C          C       0.98630   0.08870   0.15370
C          C       0.01370   0.08870   0.34630
C          C       0.48630   0.41130   0.84630
H          H       0.44714   0.59790   0.34041
H          H       0.05286   0.90210   0.84041
H          H       0.94714   0.90210   0.65959
H          H       0.55286   0.59790   0.15959
H          H       0.55286   0.40210   0.65959
H          H       0.94714   0.09790   0.15959
H          H       0.05286   0.09790   0.34041
H          H       0.44714   0.40210   0.84041
C          C       0.50210   0.52600   0.37710
C          C       0.99790   0.97400   0.87710
C          C       0.00210   0.97400   0.62290
C          C       0.49790   0.52600   0.12290
C          C       0.49790   0.47400   0.62290
C          C       0.00210   0.02600   0.12290
C          C       0.99790   0.02600   0.37710
C          C       0.50210   0.47400   0.87710
C          C       0.45630   0.48240   0.39960
C          C       0.04370   0.01760   0.89960
C          C       0.95630   0.01760   0.60040
C          C       0.54370   0.48240   0.10040
C          C       0.54370   0.51760   0.60040
C          C       0.95630   0.98240   0.10040
C          C       0.04370   0.98240   0.39960
C          C       0.45630   0.51760   0.89960
C          C       0.47350   0.41670   0.42730
C          C       0.02650   0.08330   0.92730
C          C       0.97350   0.08330   0.57270
C          C       0.52650   0.41670   0.07270
C          C       0.52650   0.58330   0.57270
C          C       0.97350   0.91670   0.07270
C          C       0.02650   0.91670   0.42730
C          C       0.47350   0.58330   0.92730
H          H       0.44468   0.38171   0.44048
H          H       0.05532   0.11829   0.94048
H          H       0.94468   0.11829   0.55952
H          H       0.55532   0.38171   0.05952
H          H       0.55532   0.61829   0.55952
H          H       0.94468   0.88171   0.05952
H          H       0.05532   0.88171   0.44048
H          H       0.44468   0.61829   0.94048
C          C       0.53010   0.40040   0.43630
C          C       0.96990   0.09960   0.93630
C          C       0.03010   0.09960   0.56370
C          C       0.46990   0.40040   0.06370
C          C       0.46990   0.59960   0.56370
C          C       0.03010   0.90040   0.06370
C          C       0.96990   0.90040   0.43630
C          C       0.53010   0.59960   0.93630
C          C       0.57670   0.44960   0.41610
C          C       0.92330   0.05040   0.91610
C          C       0.07670   0.05040   0.58390
C          C       0.42330   0.44960   0.08390
C          C       0.42330   0.55040   0.58390
C          C       0.07670   0.94960   0.08390
C          C       0.92330   0.94960   0.41610
C          C       0.57670   0.55040   0.91610
C          C       0.63530   0.43340   0.42430
C          C       0.86470   0.06660   0.92430
C          C       0.13530   0.06660   0.57570
C          C       0.36470   0.43340   0.07570
C          C       0.36470   0.56660   0.57570
C          C       0.13530   0.93340   0.07570
C          C       0.86470   0.93340   0.42430
C          C       0.63530   0.56660   0.92430
H          H       0.64558   0.39131   0.44368
H          H       0.85442   0.10869   0.94368
H          H       0.14558   0.10869   0.55632
H          H       0.35442   0.39131   0.05632
H          H       0.35442   0.60869   0.55632
H          H       0.14558   0.89131   0.05632
H          H       0.85442   0.89131   0.44368
H          H       0.64558   0.60869   0.94368
C          C       0.67860   0.48030   0.40340
C          C       0.82140   0.01970   0.90340
C          C       0.17860   0.01970   0.59660
C          C       0.32140   0.48030   0.09660
C          C       0.32140   0.51970   0.59660
C          C       0.17860   0.98030   0.09660
C          C       0.82140   0.98030   0.40340
C          C       0.67860   0.51970   0.90340
H          H       0.71778   0.46947   0.40890
H          H       0.78222   0.03053   0.90890
H          H       0.21778   0.03053   0.59110
H          H       0.28222   0.46947   0.09110
H          H       0.28222   0.53053   0.59110
H          H       0.21778   0.96947   0.09110
H          H       0.78222   0.96947   0.40890
H          H       0.71778   0.53053   0.90890
C          C       0.66330   0.54320   0.37440
C          C       0.83670   0.95680   0.87440
C          C       0.16330   0.95680   0.62560
C          C       0.33670   0.54320   0.12560
C          C       0.33670   0.45680   0.62560
C          C       0.16330   0.04320   0.12560
C          C       0.83670   0.04320   0.37440
C          C       0.66330   0.45680   0.87440
C          C       0.60470   0.55930   0.36620
C          C       0.89530   0.94070   0.86620
C          C       0.10470   0.94070   0.63380
C          C       0.39530   0.55930   0.13380
C          C       0.39530   0.44070   0.63380
C          C       0.10470   0.05930   0.13380
C          C       0.89530   0.05930   0.36620
C          C       0.60470   0.44070   0.86620
C          C       0.56140   0.51250   0.38700
C          C       0.93860   0.98750   0.88700
C          C       0.06140   0.98750   0.61300
C          C       0.43860   0.51250   0.11300
C          C       0.43860   0.48750   0.61300
C          C       0.06140   0.01250   0.11300
C          C       0.93860   0.01250   0.38700
C          C       0.56140   0.48750   0.88700
