data_crystal

_cell_length_a    16.94220
_cell_length_b    19.64940
_cell_length_c    12.02150
_cell_angle_alpha 90.00000
_cell_angle_beta  104.50000
_cell_angle_gamma 90.00000

_symmetry_space_group_name_Hall 'P 1'
_symmetry_space_group_name_H-M  'P 1'

loop_
_symmetry_equiv_pos_as_xyz
 'x,y,z'

loop_
_atom_site_label
_atom_site_type_symbol
_atom_site_fract_x
_atom_site_fract_y
_atom_site_fract_z
O          O       0.06450   0.39860   0.79030
O          O       0.04110   0.32200   0.65000
C          C       0.76800   0.36630   0.99390
C          C       0.65100   0.43970   0.93380
H          H       0.61890   0.47480   0.95010
C          C       0.62940   0.40750   0.82750
C          C       0.67760   0.35450   0.80560
H          H       0.66390   0.33290   0.73460
C          C       0.74570   0.33360   0.88830
H          H       0.77670   0.29730   0.87310
C          C       0.55590   0.42940   0.73670
C          C       0.47840   0.41170   0.74500
H          H       0.47270   0.38930   0.81060
C          C       0.40880   0.42640   0.65860
C          C       0.41650   0.46070   0.55870
C          C       0.49540   0.48170   0.54940
C          C       0.56570   0.46530   0.63900
C          C       0.34730   0.47820   0.46540
H          H       0.29530   0.46540   0.46970
C          C       0.32770   0.40570   0.67490
C          C       0.30300   0.42930   0.77080
H          H       0.33900   0.45470   0.82660
C          C       0.22570   0.41500   0.78320
H          H       0.20980   0.43160   0.84660
C          C       0.17140   0.37590   0.70180
C          C       0.19650   0.35030   0.60940
H          H       0.16130   0.32300   0.55600
C          C       0.27370   0.36490   0.59540
H          H       0.28960   0.34740   0.53250
C          C       0.08670   0.36370   0.71360
C          C       0.64360   0.48750   0.62720
H          H       0.68970   0.47790   0.68580
Zn         Zn      0.04540   0.12300   0.69870
O          O       0.14310   0.12130   0.82390
O          O       0.11400   0.20260   0.93720
C          C       0.15650   0.15570   0.91710
C          C       0.27960   0.08040   0.98410
H          H       0.26480   0.05780   0.91390
O          O       0.04340   0.02680   0.64100
H          H       0.07100   0.02310   0.59120
O          O       0.07140   0.18780   0.58210
H          H       0.06340   0.16850   0.51690
H          H       0.03770   0.22070   0.57010
C          C       0.65270   0.22820   0.03460
H          H       0.70470   0.21540   0.03030
C          C       0.64360   0.26250   0.12720
H          H       0.68970   0.27210   0.18580
O          O       0.85700   0.37130   0.67610
O          O       0.88610   0.45260   0.56280
O          O       0.06440   0.35140   0.29030
O          O       0.04110   0.42800   0.15000
C          C       0.84360   0.40570   0.58290
C          C       0.76790   0.38380   0.49390
C          C       0.72050   0.33040   0.51590
H          H       0.73530   0.30780   0.58610
C          C       0.65090   0.31030   0.43380
H          H       0.61880   0.27520   0.45010
C          C       0.62930   0.34260   0.32750
C          C       0.67750   0.39550   0.30560
H          H       0.66390   0.41710   0.23460
C          C       0.74560   0.41650   0.38830
H          H       0.77660   0.45270   0.37310
C          C       0.55590   0.32070   0.23670
C          C       0.47840   0.33830   0.24500
H          H       0.47260   0.36080   0.31060
C          C       0.40880   0.32360   0.15860
C          C       0.41650   0.28940   0.05870
C          C       0.49540   0.26830   0.04940
C          C       0.56570   0.28480   0.13900
C          C       0.32770   0.34430   0.17490
C          C       0.30300   0.32080   0.27080
H          H       0.33890   0.29530   0.32660
C          C       0.22560   0.33510   0.28320
H          H       0.20970   0.31840   0.34660
C          C       0.17140   0.37410   0.20180
C          C       0.19650   0.39970   0.10940
H          H       0.16130   0.42710   0.05600
C          C       0.27370   0.38510   0.09540
H          H       0.28960   0.40260   0.03250
C          C       0.08670   0.38630   0.21360
Zn         Zn      0.95470   0.37300   0.80130
O          O       0.95670   0.27680   0.85900
H          H       0.92910   0.27310   0.90880
H          H       0.93220   0.24990   0.80630
O          O       0.92870   0.43780   0.91790
H          H       0.93670   0.41850   0.98310
H          H       0.96240   0.47070   0.92990
Zn         Zn      0.04530   0.12700   0.19870
O          O       0.14300   0.12880   0.32390
O          O       0.11390   0.04740   0.43720
O          O       0.93560   0.14860   0.70970
O          O       0.95900   0.07200   0.85000
O          O       0.04340   0.22320   0.14100
H          H       0.07100   0.22690   0.09120
H          H       0.06790   0.25020   0.19370
O          O       0.07140   0.06230   0.08210
H          H       0.06340   0.08160   0.01690
H          H       0.03770   0.02940   0.07010
C          C       0.15640   0.09440   0.41710
C          C       0.23210   0.11630   0.50610
C          C       0.27950   0.16970   0.48410
H          H       0.26470   0.19220   0.41390
C          C       0.34910   0.18970   0.56620
H          H       0.38120   0.22480   0.54990
C          C       0.37070   0.15750   0.67250
C          C       0.32250   0.10450   0.69440
H          H       0.33610   0.08290   0.76540
C          C       0.25440   0.08360   0.61170
H          H       0.22340   0.04730   0.62690
C          C       0.44410   0.17940   0.76330
C          C       0.52160   0.16170   0.75500
H          H       0.52740   0.13930   0.68940
C          C       0.59130   0.17640   0.84140
C          C       0.58360   0.21070   0.94130
C          C       0.50470   0.23170   0.95060
C          C       0.43440   0.21530   0.86100
C          C       0.67240   0.15570   0.82510
C          C       0.69700   0.17930   0.72920
H          H       0.66110   0.20470   0.67340
C          C       0.77440   0.16500   0.71680
H          H       0.79030   0.18160   0.65340
C          C       0.82870   0.12590   0.79820
C          C       0.80360   0.10030   0.89060
H          H       0.83880   0.07300   0.94400
C          C       0.72640   0.11490   0.90460
H          H       0.71050   0.09740   0.96750
C          C       0.91340   0.11370   0.78640
C          C       0.34740   0.27180   0.96540
H          H       0.29540   0.28460   0.96970
C          C       0.35650   0.23750   0.87280
H          H       0.31040   0.22790   0.81420
Zn         Zn      0.95470   0.37700   0.30130
O          O       0.85700   0.37880   0.17610
O          O       0.88610   0.29740   0.06280
O          O       0.95660   0.47320   0.35900
H          H       0.92900   0.47690   0.40880
O          O       0.92860   0.31230   0.41790
H          H       0.93660   0.33160   0.48310
H          H       0.96230   0.27940   0.42990
C          C       0.84360   0.34440   0.08290
C          C       0.72050   0.41970   0.01590
H          H       0.73530   0.44220   0.08610
O          O       0.93560   0.10140   0.20970
C          C       0.35640   0.01250   0.37280
H          H       0.31030   0.02210   0.31420
O          O       0.95890   0.17800   0.35000
C          C       0.23210   0.13380   0.00610
C          C       0.34910   0.06030   0.06620
H          H       0.38120   0.02520   0.04990
C          C       0.37070   0.09260   0.17250
C          C       0.32250   0.14550   0.19440
H          H       0.33610   0.16710   0.26540
C          C       0.25440   0.16650   0.11170
H          H       0.22340   0.20270   0.12690
C          C       0.44410   0.07070   0.26330
C          C       0.52160   0.08830   0.25500
H          H       0.52740   0.11080   0.18940
C          C       0.59120   0.07360   0.34140
C          C       0.58350   0.03940   0.44130
C          C       0.50460   0.01830   0.45060
C          C       0.43430   0.03480   0.36100
C          C       0.65270   0.02180   0.53460
H          H       0.70470   0.03460   0.53030
C          C       0.67230   0.09430   0.32510
C          C       0.69700   0.07080   0.22920
H          H       0.66110   0.04530   0.17340
C          C       0.77440   0.08510   0.21680
H          H       0.79030   0.06840   0.15340
C          C       0.82860   0.12410   0.29820
C          C       0.80350   0.14970   0.39060
H          H       0.83870   0.17710   0.44400
C          C       0.72630   0.13510   0.40460
H          H       0.71040   0.15260   0.46750
C          C       0.91330   0.13630   0.28640
H          H       0.93210   0.00020   0.30630
H          H       0.06790   0.49990   0.69370
O          O       0.06450   0.89860   0.79030
O          O       0.04110   0.82200   0.65000
C          C       0.76800   0.86630   0.99390
C          C       0.65100   0.93970   0.93380
H          H       0.61890   0.97480   0.95010
C          C       0.62940   0.90750   0.82750
C          C       0.67760   0.85450   0.80560
H          H       0.66390   0.83290   0.73460
C          C       0.74570   0.83360   0.88830
H          H       0.77670   0.79730   0.87310
C          C       0.55590   0.92940   0.73670
C          C       0.47840   0.91170   0.74500
H          H       0.47270   0.88930   0.81060
C          C       0.40880   0.92640   0.65860
C          C       0.41650   0.96070   0.55870
C          C       0.49540   0.98170   0.54940
C          C       0.56570   0.96530   0.63900
C          C       0.34730   0.97820   0.46540
H          H       0.29530   0.96540   0.46970
C          C       0.32770   0.90570   0.67490
C          C       0.30300   0.92930   0.77080
H          H       0.33900   0.95470   0.82660
C          C       0.22570   0.91500   0.78320
H          H       0.20980   0.93160   0.84660
C          C       0.17140   0.87590   0.70180
C          C       0.19650   0.85030   0.60940
H          H       0.16130   0.82300   0.55600
C          C       0.27370   0.86490   0.59540
H          H       0.28960   0.84740   0.53250
C          C       0.08670   0.86370   0.71360
C          C       0.64360   0.98750   0.62720
H          H       0.68970   0.97790   0.68580
Zn         Zn      0.04540   0.62300   0.69870
O          O       0.14310   0.62130   0.82390
O          O       0.11400   0.70260   0.93720
C          C       0.15650   0.65570   0.91710
C          C       0.27960   0.58040   0.98410
H          H       0.26480   0.55780   0.91390
O          O       0.04340   0.52680   0.64100
H          H       0.07100   0.52310   0.59120
O          O       0.07140   0.68780   0.58210
H          H       0.06340   0.66850   0.51690
H          H       0.03770   0.72070   0.57010
C          C       0.65270   0.72820   0.03460
H          H       0.70470   0.71540   0.03030
C          C       0.64360   0.76250   0.12720
H          H       0.68970   0.77210   0.18580
O          O       0.85700   0.87130   0.67610
O          O       0.88610   0.95260   0.56280
O          O       0.06440   0.85140   0.29030
O          O       0.04110   0.92800   0.15000
C          C       0.84360   0.90570   0.58290
C          C       0.76790   0.88380   0.49390
C          C       0.72050   0.83040   0.51590
H          H       0.73530   0.80780   0.58610
C          C       0.65090   0.81030   0.43380
H          H       0.61880   0.77520   0.45010
C          C       0.62930   0.84260   0.32750
C          C       0.67750   0.89550   0.30560
H          H       0.66390   0.91710   0.23460
C          C       0.74560   0.91650   0.38830
H          H       0.77660   0.95270   0.37310
C          C       0.55590   0.82070   0.23670
C          C       0.47840   0.83830   0.24500
H          H       0.47260   0.86080   0.31060
C          C       0.40880   0.82360   0.15860
C          C       0.41650   0.78940   0.05870
C          C       0.49540   0.76830   0.04940
C          C       0.56570   0.78480   0.13900
C          C       0.32770   0.84430   0.17490
C          C       0.30300   0.82080   0.27080
H          H       0.33890   0.79530   0.32660
C          C       0.22560   0.83510   0.28320
H          H       0.20970   0.81840   0.34660
C          C       0.17140   0.87410   0.20180
C          C       0.19650   0.89970   0.10940
H          H       0.16130   0.92710   0.05600
C          C       0.27370   0.88510   0.09540
H          H       0.28960   0.90260   0.03250
C          C       0.08670   0.88630   0.21360
Zn         Zn      0.95470   0.87300   0.80130
O          O       0.95670   0.77680   0.85900
H          H       0.92910   0.77310   0.90880
H          H       0.93220   0.74990   0.80630
O          O       0.92870   0.93780   0.91790
H          H       0.93670   0.91850   0.98310
H          H       0.96240   0.97070   0.92990
Zn         Zn      0.04530   0.62700   0.19870
O          O       0.14300   0.62880   0.32390
O          O       0.11390   0.54740   0.43720
O          O       0.93560   0.64860   0.70970
O          O       0.95900   0.57200   0.85000
O          O       0.04340   0.72320   0.14100
H          H       0.07100   0.72690   0.09120
H          H       0.06790   0.75020   0.19370
O          O       0.07140   0.56230   0.08210
H          H       0.06340   0.58160   0.01690
H          H       0.03770   0.52940   0.07010
C          C       0.15640   0.59440   0.41710
C          C       0.23210   0.61630   0.50610
C          C       0.27950   0.66970   0.48410
H          H       0.26470   0.69220   0.41390
C          C       0.34910   0.68970   0.56620
H          H       0.38120   0.72480   0.54990
C          C       0.37070   0.65750   0.67250
C          C       0.32250   0.60450   0.69440
H          H       0.33610   0.58290   0.76540
C          C       0.25440   0.58360   0.61170
H          H       0.22340   0.54730   0.62690
C          C       0.44410   0.67940   0.76330
C          C       0.52160   0.66170   0.75500
H          H       0.52740   0.63930   0.68940
C          C       0.59130   0.67640   0.84140
C          C       0.58360   0.71070   0.94130
C          C       0.50470   0.73170   0.95060
C          C       0.43440   0.71530   0.86100
C          C       0.67240   0.65570   0.82510
C          C       0.69700   0.67930   0.72920
H          H       0.66110   0.70470   0.67340
C          C       0.77440   0.66500   0.71680
H          H       0.79030   0.68160   0.65340
C          C       0.82870   0.62590   0.79820
C          C       0.80360   0.60030   0.89060
H          H       0.83880   0.57300   0.94400
C          C       0.72640   0.61490   0.90460
H          H       0.71050   0.59740   0.96750
C          C       0.91340   0.61370   0.78640
C          C       0.34740   0.77180   0.96540
H          H       0.29540   0.78460   0.96970
C          C       0.35650   0.73750   0.87280
H          H       0.31040   0.72790   0.81420
Zn         Zn      0.95470   0.87700   0.30130
O          O       0.85700   0.87880   0.17610
O          O       0.88610   0.79740   0.06280
O          O       0.95660   0.97320   0.35900
H          H       0.92900   0.97690   0.40880
O          O       0.92860   0.81230   0.41790
H          H       0.93660   0.83160   0.48310
H          H       0.96230   0.77940   0.42990
C          C       0.84360   0.84440   0.08290
C          C       0.72050   0.91970   0.01590
H          H       0.73530   0.94220   0.08610
O          O       0.93560   0.60140   0.20970
C          C       0.35640   0.51250   0.37280
H          H       0.31030   0.52210   0.31420
O          O       0.95890   0.67800   0.35000
C          C       0.23210   0.63380   0.00610
C          C       0.34910   0.56030   0.06620
H          H       0.38120   0.52520   0.04990
C          C       0.37070   0.59260   0.17250
C          C       0.32250   0.64550   0.19440
H          H       0.33610   0.66710   0.26540
C          C       0.25440   0.66650   0.11170
H          H       0.22340   0.70270   0.12690
C          C       0.44410   0.57070   0.26330
C          C       0.52160   0.58830   0.25500
H          H       0.52740   0.61080   0.18940
C          C       0.59120   0.57360   0.34140
C          C       0.58350   0.53940   0.44130
C          C       0.50460   0.51830   0.45060
C          C       0.43430   0.53480   0.36100
C          C       0.65270   0.52180   0.53460
H          H       0.70470   0.53460   0.53030
C          C       0.67230   0.59430   0.32510
C          C       0.69700   0.57080   0.22920
H          H       0.66110   0.54530   0.17340
C          C       0.77440   0.58510   0.21680
H          H       0.79030   0.56840   0.15340
C          C       0.82860   0.62410   0.29820
C          C       0.80350   0.64970   0.39060
H          H       0.83870   0.67710   0.44400
C          C       0.72630   0.63510   0.40460
H          H       0.71040   0.65260   0.46750
C          C       0.91330   0.63630   0.28640
H          H       0.93210   0.50020   0.30630
H          H       0.06790   0.99990   0.69370
