data_crystal

_cell_length_a    14.84440
_cell_length_b    10.60970
_cell_length_c    25.81610
_cell_angle_alpha 90.00000
_cell_angle_beta  90.00000
_cell_angle_gamma 90.00000

_symmetry_space_group_name_Hall 'P 1'
_symmetry_space_group_name_H-M  'P 1'

loop_
_symmetry_equiv_pos_as_xyz
 'x,y,z'

loop_
_atom_site_label
_atom_site_type_symbol
_atom_site_fract_x
_atom_site_fract_y
_atom_site_fract_z
Sr         Sr      0.15220   0.30580   0.99520
O          O       0.61390   0.48570   0.06110
O          O       0.50230   0.35330   0.04570
O          O       0.24960   0.72870   0.43400
O          O       0.14590   0.59200   0.41100
O          O       0.06150   1.09170   0.02100
C          C       0.53900   0.44050   0.07200
C          C       0.48790   0.48600   0.11910
C          C       0.53190   0.55910   0.15640
H          H       0.59210   0.58570   0.15060
C          C       0.48780   0.59330   0.20220
C          C       0.53030   0.66880   0.24210
H          H       0.58870   0.70240   0.23610
C          C       0.48850   0.69230   0.28780
H          H       0.51910   0.73990   0.31350
C          C       0.39880   0.64690   0.29810
C          C       0.35470   0.57610   0.25920
C          C       0.39910   0.55140   0.21070
C          C       0.35420   0.66980   0.34480
H          H       0.38310   0.71810   0.37090
C          C       0.26790   0.62310   0.35350
C          C       0.21780   0.64940   0.40280
C          C       0.22540   0.55340   0.31530
H          H       0.16650   0.52180   0.32150
C          C       0.26700   0.52850   0.26810
C          C       0.22290   0.45560   0.22750
H          H       0.16760   0.41370   0.23440
C          C       0.26060   0.44750   0.17980
H          H       0.22580   0.41790   0.15140
C          C       0.35330   0.48360   0.17180
C          C       0.39950   0.45220   0.12630
H          H       0.36900   0.40650   0.09990
C          C       0.10780   0.99590   0.02490
H          H       0.15740   0.98960   0.00180
N          N       0.09680   0.90190   0.05680
C          C       0.15290   0.78750   0.04880
H          H       0.18260   0.79190   0.01450
H          H       0.11400   0.71160   0.04940
C          C       0.22220   0.77830   0.09020
H          H       0.25910   0.70290   0.08450
H          H       0.19250   0.77240   0.12400
H          H       0.26070   0.85330   0.08940
C          C       0.02850   0.90960   0.09830
H          H       0.00990   0.99850   0.10310
H          H       0.05500   0.87960   0.13130
C          C      -0.05360   0.82990   0.08490
H          H      -0.09820   0.83650   0.11280
H          H      -0.03530   0.74170   0.08090
H          H      -0.08010   0.86020   0.05250
Sr         Sr      0.40220   0.19420   0.00480
Sr         Sr      0.09780   0.69420   0.49520
Sr         Sr      0.34780   0.80580   0.50480
O          O       0.25230   1.14670   0.95430
O          O       0.50040   0.27130   0.93400
O          O       0.25040   0.22870   0.06600
O          O       0.60410   0.40800   0.91100
O          O       0.31150   0.40830   0.97900
O          O       0.13600   0.51430   0.56110
O          O       0.24760   0.64670   0.54570
O          O       0.18850  -0.09170   0.52100
C          C       0.21100   0.55950   0.57200
C          C       0.26200   0.51400   0.61910
C          C       0.21810   0.44090   0.65640
H          H       0.15780   0.41430   0.65060
C          C       0.26220   0.40670   0.70220
C          C       0.21970   0.33120   0.74210
H          H       0.16130   0.29760   0.73610
C          C       0.26150   0.30770   0.78770
H          H       0.23090   0.26010   0.81350
C          C       0.35120   0.35310   0.79810
C          C       0.39530   0.42390   0.75920
C          C       0.35090   0.44860   0.71070
C          C       0.39580   0.33020   0.84480
H          H       0.36690   0.28190   0.87090
C          C       0.48210   0.37690   0.85360
C          C       0.53220   0.35060   0.90280
C          C       0.52460   0.44660   0.81530
H          H       0.58350   0.47820   0.82150
C          C       0.48300   0.47150   0.76810
C          C       0.52710   0.54440   0.72750
H          H       0.58230   0.58630   0.73440
C          C       0.48940   0.55250   0.67980
H          H       0.52420   0.58210   0.65140
C          C       0.39670   0.51640   0.67180
C          C       0.35050   0.54780   0.62630
H          H       0.38090   0.59350   0.59990
C          C       0.14220   0.00410   0.52490
H          H       0.09260   0.01040   0.50180
N          N       0.15320   0.09810   0.55680
C          C       0.09710   0.21250   0.54880
H          H       0.06740   0.20810   0.51450
H          H       0.13600   0.28840   0.54940
C          C       0.02780   0.22170   0.59020
H          H      -0.00910   0.29710   0.58450
H          H       0.05750   0.22760   0.62400
H          H      -0.01070   0.14670   0.58940
C          C       0.22150   0.09040   0.59830
H          H       0.24010   0.00150   0.60310
H          H       0.19500   0.12040   0.63130
C          C       0.30360   0.17010   0.58490
H          H       0.34820   0.16350   0.61280
H          H       0.28530   0.25830   0.58090
H          H       0.33010   0.13980   0.55250
O          O      -0.00240  -0.14670   0.45420
O          O      -0.00040   0.77130   0.56600
O          O       0.43850   0.59170   0.47900
O          O      -0.11400  -0.01430   0.43890
O          O       0.35410   0.09200   0.08900
C          C      -0.03900  -0.05950   0.42800
C          C       0.01200  -0.01400   0.38090
C          C      -0.03190   0.05910   0.34360
H          H      -0.09210   0.08570   0.34940
C          C       0.01220   0.09330   0.29780
C          C      -0.03030   0.16880   0.25790
H          H      -0.08870   0.20240   0.26390
C          C       0.01140   0.19230   0.21220
H          H      -0.01910   0.23990   0.18650
C          C       0.10120   0.14690   0.20190
C          C       0.14530   0.07610   0.24080
C          C       0.10090   0.05140   0.28930
C          C       0.14590   0.16980   0.15520
H          H       0.11690   0.21810   0.12910
C          C       0.23210   0.12310   0.14650
C          C       0.28220   0.14940   0.09720
C          C       0.27460   0.05340   0.18470
H          H       0.33350   0.02180   0.17850
C          C       0.23300   0.02850   0.23190
C          C       0.27710  -0.04440   0.27250
H          H       0.33240  -0.08630   0.26560
C          C       0.23940  -0.05250   0.32020
H          H       0.27420  -0.08210   0.34860
C          C       0.14670  -0.01640   0.32820
C          C       0.10050  -0.04780   0.37370
H          H       0.13090  -0.09350   0.40010
C          C       0.39220   0.49590   0.47510
H          H       0.34260   0.48960   0.49820
N          N       0.40320   0.40190   0.44320
C          C       0.34710   0.28750   0.45120
H          H       0.31740   0.29190   0.48550
H          H       0.38600   0.21160   0.45060
C          C       0.27780   0.27830   0.40980
H          H       0.24090   0.20290   0.41550
H          H       0.30750   0.27240   0.37600
H          H       0.23930   0.35330   0.41060
C          C       0.47150   0.40960   0.40170
H          H       0.49010   0.49850   0.39690
H          H       0.44500   0.37960   0.36870
C          C       0.55360   0.32990   0.41510
H          H       0.59810   0.33650   0.38720
H          H       0.53530   0.24170   0.41910
H          H       0.58010   0.36020   0.44750
O          O      -0.10420   0.90800   0.58900
O          O       0.36390   1.01430   0.93890
C          C       0.28900   1.05950   0.92800
C          C       0.23790   1.01400   0.88090
C          C       0.28190   0.94090   0.84360
H          H       0.34210   0.91430   0.84940
C          C       0.23780   0.90670   0.79780
C          C       0.28030   0.83120   0.75790
H          H       0.33870   0.79760   0.76390
C          C       0.23860   0.80770   0.71230
H          H       0.26910   0.76010   0.68650
C          C       0.14880   0.85310   0.70190
C          C       0.10470   0.92390   0.74080
C          C       0.14910   0.94860   0.78930
C          C       0.10410   0.83020   0.65520
H          H       0.13310   0.78190   0.62910
C          C       0.01790   0.87690   0.64640
C          C      -0.03220   0.85060   0.59720
C          C      -0.02460   0.94660   0.68470
H          H      -0.08350   0.97820   0.67850
C          C       0.01700   0.97150   0.73190
C          C      -0.02710   1.04440   0.77250
H          H      -0.08240   1.08630   0.76560
C          C       0.01060   1.05250   0.82020
H          H      -0.02420   1.08210   0.84860
C          C       0.10330   1.01640   0.82820
C          C       0.14950   1.04780   0.87370
H          H       0.11900   1.09350   0.90010
C          C       0.35780   0.50410   0.97510
H          H       0.40740   0.51040   0.99820
N          N       0.34680   0.59810   0.94320
C          C       0.40290   0.71250   0.95120
H          H       0.43260   0.70810   0.98550
H          H       0.36400   0.78840   0.95060
C          C       0.47220   0.72170   0.90980
H          H       0.50910   0.79710   0.91550
H          H       0.44250   0.72760   0.87600
H          H       0.51070   0.64670   0.91060
C          C       0.27850   0.59040   0.90170
H          H       0.25990   0.50150   0.89690
H          H       0.30500   0.62040   0.86870
C          C       0.19640   0.67010   0.91510
H          H       0.15190   0.66350   0.88720
H          H       0.21470   0.75830   0.91910
H          H       0.16990   0.63980   0.94750
Sr         Sr      0.65220   0.30580   0.99520
O          O       1.11390   0.48570   0.06110
O          O       1.00230   0.35330   0.04570
O          O       0.74960   0.72870   0.43400
O          O       0.64590   0.59200   0.41100
O          O       0.56150   1.09170   0.02100
C          C       1.03900   0.44050   0.07200
C          C       0.98790   0.48600   0.11910
C          C       1.03190   0.55910   0.15640
H          H       1.09210   0.58570   0.15060
C          C       0.98780   0.59330   0.20220
C          C       1.03030   0.66880   0.24210
H          H       1.08870   0.70240   0.23610
C          C       0.98860   0.69230   0.28780
H          H       1.01910   0.73990   0.31350
C          C       0.89880   0.64690   0.29810
C          C       0.85470   0.57610   0.25920
C          C       0.89910   0.55140   0.21070
C          C       0.85410   0.66980   0.34480
H          H       0.88310   0.71810   0.37090
C          C       0.76790   0.62310   0.35350
C          C       0.71780   0.64940   0.40280
C          C       0.72540   0.55340   0.31530
H          H       0.66650   0.52180   0.32150
C          C       0.76700   0.52850   0.26810
C          C       0.72290   0.45560   0.22750
H          H       0.66760   0.41370   0.23440
C          C       0.76060   0.44750   0.17980
H          H       0.72580   0.41790   0.15140
C          C       0.85330   0.48360   0.17180
C          C       0.89950   0.45220   0.12630
H          H       0.86900   0.40650   0.09990
C          C       0.60780   0.99590   0.02490
H          H       0.65740   0.98960   0.00180
N          N       0.59680   0.90190   0.05680
C          C       0.65290   0.78750   0.04880
H          H       0.68260   0.79190   0.01450
H          H       0.61400   0.71160   0.04940
C          C       0.72220   0.77830   0.09020
H          H       0.75910   0.70290   0.08450
H          H       0.69250   0.77240   0.12400
H          H       0.76070   0.85330   0.08940
C          C       0.52850   0.90960   0.09830
H          H       0.50990   0.99850   0.10310
H          H       0.55500   0.87960   0.13130
C          C       0.44640   0.82990   0.08490
H          H       0.40180   0.83650   0.11280
H          H       0.46470   0.74170   0.08090
H          H       0.41990   0.86020   0.05250
Sr         Sr      0.90220   0.19420   0.00480
Sr         Sr      0.59780   0.69420   0.49520
Sr         Sr      0.84780   0.80580   0.50480
O          O       0.75230   1.14670   0.95430
O          O       1.00040   0.27130   0.93400
O          O       0.75040   0.22870   0.06600
O          O       1.10410   0.40800   0.91100
O          O       0.81150   0.40830   0.97900
O          O       0.63600   0.51430   0.56110
O          O       0.74760   0.64670   0.54570
O          O       0.68850  -0.09170   0.52100
C          C       0.71100   0.55950   0.57200
C          C       0.76200   0.51400   0.61910
C          C       0.71810   0.44090   0.65640
H          H       0.65790   0.41430   0.65060
C          C       0.76220   0.40670   0.70220
C          C       0.71970   0.33120   0.74210
H          H       0.66130   0.29760   0.73610
C          C       0.76140   0.30770   0.78770
H          H       0.73090   0.26010   0.81350
C          C       0.85120   0.35310   0.79810
C          C       0.89530   0.42390   0.75920
C          C       0.85090   0.44860   0.71070
C          C       0.89590   0.33020   0.84480
H          H       0.86690   0.28190   0.87090
C          C       0.98210   0.37690   0.85360
C          C       1.03220   0.35060   0.90280
C          C       1.02460   0.44660   0.81530
H          H       1.08350   0.47820   0.82150
C          C       0.98300   0.47150   0.76810
C          C       1.02710   0.54440   0.72750
H          H       1.08230   0.58630   0.73440
C          C       0.98940   0.55250   0.67980
H          H       1.02420   0.58210   0.65140
C          C       0.89670   0.51640   0.67180
C          C       0.85050   0.54780   0.62630
H          H       0.88090   0.59350   0.59990
C          C       0.64220   0.00410   0.52490
H          H       0.59260   0.01040   0.50180
N          N       0.65320   0.09810   0.55680
C          C       0.59710   0.21250   0.54880
H          H       0.56740   0.20810   0.51450
H          H       0.63600   0.28840   0.54940
C          C       0.52780   0.22170   0.59020
H          H       0.49090   0.29710   0.58450
H          H       0.55750   0.22760   0.62400
H          H       0.48930   0.14670   0.58940
C          C       0.72150   0.09040   0.59830
H          H       0.74010   0.00150   0.60310
H          H       0.69500   0.12040   0.63130
C          C       0.80360   0.17010   0.58490
H          H       0.84810   0.16350   0.61280
H          H       0.78530   0.25830   0.58090
H          H       0.83010   0.13980   0.55250
O          O       0.49760  -0.14670   0.45420
O          O       0.49960   0.77130   0.56600
O          O       0.93850   0.59170   0.47900
O          O       0.38600  -0.01430   0.43890
O          O       0.85410   0.09200   0.08900
C          C       0.46100  -0.05950   0.42800
C          C       0.51200  -0.01400   0.38090
C          C       0.46810   0.05910   0.34360
H          H       0.40790   0.08570   0.34940
C          C       0.51220   0.09330   0.29780
C          C       0.46970   0.16880   0.25790
H          H       0.41130   0.20240   0.26390
C          C       0.51140   0.19230   0.21220
H          H       0.48090   0.23990   0.18650
C          C       0.60120   0.14690   0.20190
C          C       0.64530   0.07610   0.24080
C          C       0.60090   0.05140   0.28930
C          C       0.64590   0.16980   0.15520
H          H       0.61690   0.21810   0.12910
C          C       0.73210   0.12310   0.14650
C          C       0.78220   0.14940   0.09720
C          C       0.77460   0.05340   0.18470
H          H       0.83350   0.02180   0.17850
C          C       0.73300   0.02850   0.23190
C          C       0.77710  -0.04440   0.27250
H          H       0.83240  -0.08630   0.26560
C          C       0.73940  -0.05250   0.32020
H          H       0.77420  -0.08210   0.34860
C          C       0.64670  -0.01640   0.32820
C          C       0.60050  -0.04780   0.37370
H          H       0.63090  -0.09350   0.40010
C          C       0.89220   0.49590   0.47510
H          H       0.84260   0.48960   0.49820
N          N       0.90320   0.40190   0.44320
C          C       0.84710   0.28750   0.45120
H          H       0.81740   0.29190   0.48550
H          H       0.88600   0.21160   0.45060
C          C       0.77780   0.27830   0.40980
H          H       0.74090   0.20290   0.41550
H          H       0.80750   0.27240   0.37600
H          H       0.73930   0.35330   0.41060
C          C       0.97150   0.40960   0.40170
H          H       0.99010   0.49850   0.39690
H          H       0.94500   0.37960   0.36870
C          C       1.05360   0.32990   0.41510
H          H       1.09810   0.33650   0.38720
H          H       1.03530   0.24170   0.41910
H          H       1.08010   0.36020   0.44750
O          O       0.39580   0.90800   0.58900
O          O       0.86390   1.01430   0.93890
C          C       0.78900   1.05950   0.92800
C          C       0.73790   1.01400   0.88090
C          C       0.78190   0.94090   0.84360
H          H       0.84210   0.91430   0.84940
C          C       0.73780   0.90670   0.79780
C          C       0.78030   0.83120   0.75790
H          H       0.83870   0.79760   0.76390
C          C       0.73860   0.80770   0.71230
H          H       0.76910   0.76010   0.68650
C          C       0.64880   0.85310   0.70190
C          C       0.60470   0.92390   0.74080
C          C       0.64910   0.94860   0.78930
C          C       0.60410   0.83020   0.65520
H          H       0.63310   0.78190   0.62910
C          C       0.51790   0.87690   0.64640
C          C       0.46780   0.85060   0.59720
C          C       0.47540   0.94660   0.68470
H          H       0.41650   0.97820   0.67850
C          C       0.51700   0.97150   0.73190
C          C       0.47290   1.04440   0.77250
H          H       0.41760   1.08630   0.76560
C          C       0.51060   1.05250   0.82020
H          H       0.47580   1.08210   0.84860
C          C       0.60330   1.01640   0.82820
C          C       0.64950   1.04780   0.87370
H          H       0.61900   1.09350   0.90010
C          C       0.85780   0.50410   0.97510
H          H       0.90740   0.51040   0.99820
N          N       0.84680   0.59810   0.94320
C          C       0.90290   0.71250   0.95120
H          H       0.93260   0.70810   0.98550
H          H       0.86400   0.78840   0.95060
C          C       0.97220   0.72170   0.90980
H          H       1.00910   0.79710   0.91550
H          H       0.94250   0.72760   0.87600
H          H       1.01070   0.64670   0.91060
C          C       0.77850   0.59040   0.90170
H          H       0.75990   0.50150   0.89690
H          H       0.80500   0.62040   0.86870
C          C       0.69640   0.67010   0.91510
H          H       0.65190   0.66350   0.88720
H          H       0.71470   0.75830   0.91910
H          H       0.66990   0.63980   0.94750
