data_crystal

_cell_length_a    14.79740
_cell_length_b    15.91890
_cell_length_c    31.88910
_cell_angle_alpha 90.00000
_cell_angle_beta  92.71000
_cell_angle_gamma 90.00000

_symmetry_space_group_name_Hall 'P 1'
_symmetry_space_group_name_H-M  'P 1'

loop_
_symmetry_equiv_pos_as_xyz
 'x,y,z'

loop_
_atom_site_label
_atom_site_type_symbol
_atom_site_fract_x
_atom_site_fract_y
_atom_site_fract_z
O          O       0.00310   0.35190   0.35020
O          O       0.00390   0.34870   0.85890
Cd         Cd      0.05840   0.30920   0.28750
Cd         Cd      0.04380   0.30710   0.79330
O          O       0.25580   0.19100   0.22450
O          O       0.21330   0.31150   0.25100
C          C       0.22350   0.26320   0.21970
C          C       0.19580   0.29280   0.17680
C          C       0.18880   0.37820   0.16900
H          H       0.19890   0.41650   0.19070
C          C       0.16680   0.40640   0.12880
H          H       0.16470   0.46390   0.12350
C          C       0.14790   0.35080   0.09620
C          C       0.15420   0.26560   0.10430
H          H       0.14230   0.22720   0.08280
C          C       0.17810   0.23740   0.14450
H          H       0.18230   0.18000   0.14960
C          C       0.12620   0.38300   0.05290
C          C       0.04990   0.43410   0.04420
C          C       0.03740   0.47230   0.00420
C          C       0.18430   0.36470   0.02110
H          H       0.23230   0.32800   0.02660
O          O       0.11380   0.44000   0.29320
Cd         Cd      0.29390   0.19290   0.29330
O          O       0.02190   0.21040   0.23820
O          O       0.14540   0.20570   0.31860
O          O       0.27190   0.28960   0.73820
O          O       0.22820   0.16500   0.71840
O          O       0.39570   0.29200   0.31160
C          C       0.23600   0.24160   0.71080
C          C       0.20520   0.27650   0.66880
C          C       0.21900   0.36130   0.66050
H          H       0.24520   0.39610   0.68110
C          C       0.19300   0.39350   0.62100
H          H       0.20010   0.45050   0.61560
C          C       0.15710   0.34180   0.58970
C          C       0.14390   0.25780   0.59850
H          H       0.11950   0.22250   0.57760
C          C       0.16670   0.22550   0.63780
H          H       0.15590   0.16910   0.64350
C          C       0.13180   0.37960   0.54720
C          C       0.05480   0.42940   0.54130
C          C       0.03800   0.47240   0.50280
C          C       0.09900   0.46110   0.46930
C          C       0.17220   0.40430   0.47510
C          C       0.18730   0.36580   0.51380
H          H       0.23630   0.32950   0.51770
C          C       0.08250   0.51120   0.43240
H          H       0.12400   0.50900   0.41140
C          C       0.01040   0.56080   0.42690
H          H       0.00180   0.59000   0.40180
C          C       0.23540   0.38540   0.44090
C          C       0.20510   0.37210   0.39960
H          H       0.14350   0.37470   0.39250
C          C       0.26530   0.35490   0.36870
H          H       0.24350   0.34710   0.34110
C          C       0.35770   0.34900   0.37840
C          C       0.38910   0.36070   0.41960
H          H       0.45060   0.35650   0.42660
C          C       0.32850   0.37860   0.45060
H          H       0.35030   0.38620   0.47820
C          C       0.42220   0.32990   0.34500
O          O       0.39530   0.29430   0.81860
C          C       0.10130   0.45710   0.97260
C          C       0.17250   0.39970   0.98120
C          C       0.09050   0.50360   0.93450
H          H       0.13450   0.49890   0.91480
C          C       0.01860   0.55410   0.92620
H          H       0.01350   0.58190   0.90050
C          C       0.23710   0.37630   0.94870
C          C       0.20630   0.35910   0.90780
H          H       0.14450   0.35950   0.90090
C          C       0.26700   0.34140   0.87710
H          H       0.24590   0.33080   0.84970
C          C       0.35910   0.33960   0.88730
C          C       0.39010   0.35340   0.92810
H          H       0.45170   0.35110   0.93510
C          C       0.32980   0.37090   0.95880
H          H       0.35110   0.37910   0.98640
C          C       0.42300   0.32660   0.85340
Cd         Cd      0.30830   0.19080   0.78750
O          O       0.10460   0.70570   0.18140
C          C       0.39870   0.54290   0.02740
C          C       0.32740   0.60030   0.01880
C          C       0.40940   0.49640   0.06550
H          H       0.36550   0.50110   0.08520
C          C       0.48130   0.44590   0.07380
H          H       0.48650   0.41810   0.09950
C          C       0.26290   0.62370   0.05130
C          C       0.29370   0.64090   0.09220
H          H       0.35540   0.64050   0.09910
C          C       0.23290   0.65860   0.12290
H          H       0.25400   0.66920   0.15030
C          C       0.14090   0.66040   0.11270
C          C       0.10990   0.64660   0.07190
H          H       0.04820   0.64890   0.06490
C          C       0.17020   0.62910   0.04120
H          H       0.14890   0.62090   0.01360
C          C       0.07690   0.67340   0.14660
Cd         Cd      0.19170   0.80920   0.21240
O          O       0.47820   0.33500   0.21840
O          O       0.03670   0.81150   0.24900
Cd         Cd      0.20600   0.80710   0.70670
O          O       0.22810   0.71040   0.26180
O          O       0.27180   0.83500   0.28160
O          O       0.09090   0.89510   0.71630
O          O       0.10430   0.70800   0.68840
O          O       0.24410   0.80900   0.77550
O          O       0.28670   0.68850   0.74900
C          C       0.26390   0.75840   0.28920
C          C       0.29480   0.72350   0.33120
C          C       0.28100   0.63870   0.33940
H          H       0.25490   0.60390   0.31890
C          C       0.30700   0.60650   0.37900
H          H       0.29990   0.54950   0.38440
C          C       0.34290   0.65820   0.41030
C          C       0.35600   0.74220   0.40150
H          H       0.38050   0.77750   0.42240
C          C       0.33330   0.77450   0.36220
H          H       0.34400   0.83090   0.35650
C          C       0.36830   0.62040   0.45280
C          C       0.44520   0.57060   0.45870
C          C       0.46200   0.52760   0.49720
C          C       0.40100   0.53890   0.53070
C          C       0.32780   0.59570   0.52490
C          C       0.31270   0.63420   0.48620
H          H       0.26370   0.67050   0.48230
C          C       0.41750   0.48880   0.56760
H          H       0.37600   0.49100   0.58860
C          C       0.48970   0.43920   0.57310
H          H       0.49820   0.41000   0.59820
C          C       0.26460   0.61460   0.55910
C          C       0.29490   0.62790   0.60050
H          H       0.35650   0.62530   0.60750
C          C       0.23470   0.64510   0.63130
H          H       0.25640   0.65290   0.65890
C          C       0.14240   0.65100   0.62160
C          C       0.11090   0.63930   0.58040
H          H       0.04940   0.64350   0.57340
C          C       0.17150   0.62140   0.54940
H          H       0.14970   0.61380   0.52180
C          C       0.07780   0.67010   0.65500
C          C       0.27650   0.73680   0.78030
C          C       0.30420   0.70720   0.82320
C          C       0.31120   0.62180   0.83100
H          H       0.30100   0.58350   0.80930
C          C       0.33320   0.59360   0.87120
H          H       0.33530   0.53610   0.87650
C          C       0.35210   0.64920   0.90380
C          C       0.34580   0.73440   0.89570
H          H       0.35770   0.77280   0.91720
C          C       0.32180   0.76260   0.85550
H          H       0.31770   0.82000   0.85040
C          C       0.37370   0.61700   0.94710
C          C       0.45010   0.56590   0.95580
C          C       0.46260   0.52770   0.99580
C          C       0.31570   0.63530   0.97890
H          H       0.26770   0.67200   0.97340
Cd         Cd      0.44160   0.69080   0.71250
O          O       0.02170   0.66500   0.78160
O          O       0.24590   0.84870   0.64110
O          O       0.35460   0.79430   0.68140
O          O       0.49600   0.65130   0.14110
Cd         Cd      0.45610   0.69290   0.20670
O          O       0.34100   0.60490   0.21630
O          O       0.35430   0.79200   0.18840
O          O       0.49420   0.69100   0.27560
O          O       0.38610   0.56000   0.70680
O          O       0.49690   0.64810   0.64980
O          O       0.47810   0.78960   0.76180
O          O       0.36380   0.06000   0.79320
O          O       0.15900   0.39510   0.78370
O          O       0.14560   0.20800   0.81160
O          O       0.25310   0.14810   0.85020
O          O       0.00580   0.30900   0.72450
O          O       0.25400   0.15130   0.35890
C          C       0.01520   0.14510   0.86870
C          C       0.10760   0.15100   0.87840
C          C       0.13910   0.13930   0.91960
H          H       0.20060   0.14350   0.92660
C          C       0.07850   0.12140   0.95060
H          H       0.10030   0.11380   0.97820
C          C       0.17210   0.17010   0.84500
C          C       0.01710   0.15860   0.37710
C          C       0.10910   0.16040   0.38730
C          C       0.14010   0.14660   0.42810
H          H       0.20180   0.14890   0.43510
C          C       0.07980   0.12910   0.45880
H          H       0.10110   0.12090   0.48640
C          C       0.17310   0.17340   0.35340
O          O       0.40900   0.10490   0.28370
O          O       0.46320   0.18850   0.75100
C          C       0.48610   0.25840   0.21080
C          C       0.45520   0.22350   0.16880
C          C       0.46900   0.13870   0.16050
H          H       0.49520   0.10390   0.18110
C          C       0.44310   0.10650   0.12100
H          H       0.45010   0.04950   0.11560
C          C       0.40710   0.15820   0.08970
C          C       0.39400   0.24220   0.09850
H          H       0.36950   0.27750   0.07760
C          C       0.41670   0.27450   0.13780
H          H       0.40600   0.33090   0.14350
C          C       0.38170   0.12040   0.04720
C          C       0.30480   0.07060   0.04130
C          C       0.28800   0.02760   0.00280
C          C       0.43730   0.13420   0.01380
H          H       0.48630   0.17050   0.01770
C          C       0.16750   0.01120   0.06760
H          H       0.12600   0.00900   0.08860
C          C       0.23960   0.06080   0.07310
H          H       0.24820   0.09000   0.09820
C          C       0.34890   0.03890   0.96930
C          C       0.42220   0.09570   0.97510
C          C       0.48530   0.11460   0.94090
C          C       0.45510   0.12790   0.89950
H          H       0.39340   0.12530   0.89250
H          H       0.49350   0.15290   0.84110
C          C       0.47340   0.23680   0.71970
C          C       0.44570   0.20720   0.67680
C          C       0.43880   0.12180   0.66900
H          H       0.44890   0.08350   0.69070
C          C       0.41680   0.09360   0.62880
H          H       0.41460   0.03610   0.62350
C          C       0.39790   0.14920   0.59620
C          C       0.40410   0.23440   0.60430
H          H       0.39230   0.27280   0.58280
C          C       0.42810   0.26260   0.64450
H          H       0.43220   0.32000   0.64960
C          C       0.37620   0.11700   0.55290
C          C       0.29990   0.06590   0.54420
C          C       0.28740   0.02770   0.50420
C          C       0.35130   0.04290   0.47260
C          C       0.42260   0.10030   0.48120
C          C       0.43430   0.13530   0.52110
H          H       0.48230   0.17200   0.52660
H          H       0.38450   0.00110   0.41480
C          C       0.48710   0.12370   0.44870
C          C       0.45630   0.14090   0.40780
H          H       0.39460   0.14050   0.40090
H          H       0.49600   0.16920   0.34970
C          C       0.15940   0.00360   0.56550
C          C       0.23130   0.05410   0.57380
H          H       0.23650   0.08190   0.59950
C          C       0.15100   0.96110   0.03070
C          C       0.07780   0.90430   0.02490
C          C       0.01460   0.88540   0.05910
C          C       0.04490   0.87210   0.10040
H          H       0.10650   0.87470   0.10750
H          H       0.00650   0.84710   0.15890
C          C       0.33250   0.98880   0.93240
H          H       0.37390   0.99100   0.91140
C          C       0.26030   0.93920   0.92690
H          H       0.25170   0.91000   0.90180
C          C       0.34060   0.99640   0.43450
C          C       0.26870   0.94590   0.42620
H          H       0.26360   0.91810   0.40050
C          C       0.01390   0.74160   0.78920
C          C       0.04470   0.77650   0.83120
C          C       0.03090   0.86130   0.83950
H          H       0.00480   0.89610   0.81890
C          C       0.05690   0.89350   0.87900
H          H       0.04990   0.95050   0.88440
C          C       0.09280   0.84180   0.91030
C          C       0.10600   0.75780   0.90150
H          H       0.13040   0.72250   0.92240
C          C       0.08320   0.72550   0.86220
H          H       0.09400   0.66910   0.85650
C          C       0.11820   0.87960   0.95280
C          C       0.19510   0.92940   0.95870
C          C       0.21190   0.97240   0.99720
C          C       0.06260   0.86580   0.98620
H          H       0.01370   0.82950   0.98230
C          C       0.02660   0.76320   0.28030
C          C       0.05420   0.79280   0.32320
C          C       0.06120   0.87820   0.33100
H          H       0.05110   0.91650   0.30930
C          C       0.08320   0.90640   0.37120
H          H       0.08540   0.96390   0.37650
C          C       0.10220   0.85080   0.40380
C          C       0.09580   0.76560   0.39570
H          H       0.10770   0.72720   0.41720
C          C       0.07190   0.73740   0.35550
H          H       0.06770   0.68000   0.35040
C          C       0.12380   0.88300   0.44710
C          C       0.20010   0.93410   0.45580
C          C       0.21260   0.97230   0.49580
C          C       0.14870   0.95710   0.52740
C          C       0.07740   0.89970   0.51880
C          C       0.06570   0.86470   0.47890
H          H       0.01770   0.82800   0.47340
H          H       0.11550   0.99890   0.58520
C          C       0.01290   0.87630   0.55130
C          C       0.04370   0.85910   0.59220
H          H       0.10540   0.85950   0.59910
H          H       0.00400   0.83080   0.65030
O          O       0.13620   0.94000   0.20680
O          O       0.24690   0.85190   0.14980
C          C       0.48470   0.85490   0.13130
C          C       0.39230   0.84900   0.12160
C          C       0.36090   0.86070   0.08040
H          H       0.29940   0.85650   0.07340
C          C       0.42150   0.87860   0.04940
H          H       0.39970   0.88620   0.02180
C          C       0.32780   0.82990   0.15500
C          C       0.48290   0.84140   0.62290
C          C       0.39090   0.83960   0.61270
C          C       0.35990   0.85340   0.57190
H          H       0.29820   0.85110   0.56490
C          C       0.42020   0.87090   0.54120
H          H       0.39890   0.87910   0.51360
C          C       0.32690   0.82660   0.64660
H          H       0.14860   0.45240   0.26930
H          H       0.05980   0.90640   0.68980
H          H       0.31680   0.61520   0.24320
H          H       0.38260   0.54360   0.67780
H          H       0.36740   0.04360   0.82220
H          H       0.18320   0.38480   0.75680
H          H       0.44020   0.09360   0.31020
H          H       0.17750   0.97850   0.22070
H          H       0.05770   0.48500   0.29460
H          H       0.04380   0.86630   0.73780
H          H       0.28780   0.61500   0.19150
H          H       0.43090   0.51640   0.72470
H          H       0.31910   0.01640   0.77530
H          H       0.13480   0.46030   0.78510
H          H       0.38280   0.04570   0.27010
H          H       0.12740   0.95720   0.17340
O          O       0.50310   0.35190   0.35020
O          O       0.50390   0.34870   0.85890
Cd         Cd      0.55840   0.30920   0.28750
Cd         Cd      0.54380   0.30710   0.79330
O          O       0.75580   0.19100   0.22450
O          O       0.71330   0.31150   0.25100
C          C       0.72350   0.26320   0.21970
C          C       0.69580   0.29280   0.17680
C          C       0.68880   0.37820   0.16900
H          H       0.69890   0.41650   0.19070
C          C       0.66680   0.40640   0.12880
H          H       0.66470   0.46390   0.12350
C          C       0.64790   0.35080   0.09620
C          C       0.65420   0.26560   0.10430
H          H       0.64230   0.22720   0.08280
C          C       0.67810   0.23740   0.14450
H          H       0.68230   0.18000   0.14960
C          C       0.62620   0.38300   0.05290
C          C       0.54990   0.43410   0.04420
C          C       0.53740   0.47230   0.00420
C          C       0.68430   0.36470   0.02110
H          H       0.73230   0.32800   0.02660
O          O       0.61380   0.44000   0.29320
Cd         Cd      0.79390   0.19290   0.29330
O          O       0.52190   0.21040   0.23820
O          O       0.64540   0.20570   0.31860
O          O       0.77190   0.28960   0.73820
O          O       0.72820   0.16500   0.71840
O          O       0.89570   0.29200   0.31160
C          C       0.73600   0.24160   0.71080
C          C       0.70520   0.27650   0.66880
C          C       0.71900   0.36130   0.66050
H          H       0.74520   0.39610   0.68110
C          C       0.69300   0.39350   0.62100
H          H       0.70010   0.45050   0.61560
C          C       0.65710   0.34180   0.58970
C          C       0.64390   0.25780   0.59850
H          H       0.61950   0.22250   0.57760
C          C       0.66670   0.22550   0.63780
H          H       0.65590   0.16910   0.64350
C          C       0.63180   0.37960   0.54720
C          C       0.55480   0.42940   0.54130
C          C       0.53800   0.47240   0.50280
C          C       0.59900   0.46110   0.46930
C          C       0.67220   0.40430   0.47510
C          C       0.68730   0.36580   0.51380
H          H       0.73630   0.32950   0.51770
C          C       0.58250   0.51120   0.43240
H          H       0.62400   0.50900   0.41140
C          C       0.51040   0.56080   0.42690
H          H       0.50180   0.59000   0.40180
C          C       0.73540   0.38540   0.44090
C          C       0.70510   0.37210   0.39960
H          H       0.64350   0.37470   0.39250
C          C       0.76530   0.35490   0.36870
H          H       0.74350   0.34710   0.34110
C          C       0.85770   0.34900   0.37840
C          C       0.88910   0.36070   0.41960
H          H       0.95060   0.35650   0.42660
C          C       0.82850   0.37860   0.45060
H          H       0.85030   0.38620   0.47820
C          C       0.92220   0.32990   0.34500
O          O       0.89530   0.29430   0.81860
C          C       0.60130   0.45710   0.97260
C          C       0.67250   0.39970   0.98120
C          C       0.59050   0.50360   0.93450
H          H       0.63450   0.49890   0.91480
C          C       0.51860   0.55410   0.92620
H          H       0.51350   0.58190   0.90050
C          C       0.73710   0.37630   0.94870
C          C       0.70630   0.35910   0.90780
H          H       0.64450   0.35950   0.90090
C          C       0.76700   0.34140   0.87710
H          H       0.74590   0.33080   0.84970
C          C       0.85910   0.33960   0.88730
C          C       0.89010   0.35340   0.92810
H          H       0.95170   0.35110   0.93510
C          C       0.82980   0.37090   0.95880
H          H       0.85110   0.37910   0.98640
C          C       0.92300   0.32660   0.85340
Cd         Cd      0.80830   0.19080   0.78750
O          O       0.60460   0.70570   0.18140
C          C       0.89870   0.54290   0.02740
C          C       0.82740   0.60030   0.01880
C          C       0.90940   0.49640   0.06550
H          H       0.86550   0.50110   0.08520
C          C       0.98130   0.44590   0.07380
H          H       0.98650   0.41810   0.09950
C          C       0.76290   0.62370   0.05130
C          C       0.79370   0.64090   0.09220
H          H       0.85540   0.64050   0.09910
C          C       0.73290   0.65860   0.12290
H          H       0.75400   0.66920   0.15030
C          C       0.64090   0.66040   0.11270
C          C       0.60990   0.64660   0.07190
H          H       0.54820   0.64890   0.06490
C          C       0.67020   0.62910   0.04120
H          H       0.64890   0.62090   0.01360
C          C       0.57690   0.67340   0.14660
Cd         Cd      0.69170   0.80920   0.21240
O          O       0.97820   0.33500   0.21840
O          O       0.53670   0.81150   0.24900
Cd         Cd      0.70600   0.80710   0.70670
O          O       0.72810   0.71040   0.26180
O          O       0.77180   0.83500   0.28160
O          O       0.59090   0.89510   0.71630
O          O       0.60430   0.70800   0.68840
O          O       0.74410   0.80900   0.77550
O          O       0.78670   0.68850   0.74900
C          C       0.76390   0.75840   0.28920
C          C       0.79480   0.72350   0.33120
C          C       0.78100   0.63870   0.33940
H          H       0.75490   0.60390   0.31890
C          C       0.80700   0.60650   0.37900
H          H       0.79990   0.54950   0.38440
C          C       0.84290   0.65820   0.41030
C          C       0.85600   0.74220   0.40150
H          H       0.88050   0.77750   0.42240
C          C       0.83330   0.77450   0.36220
H          H       0.84400   0.83090   0.35650
C          C       0.86830   0.62040   0.45280
C          C       0.94520   0.57060   0.45870
C          C       0.96200   0.52760   0.49720
C          C       0.90100   0.53890   0.53070
C          C       0.82780   0.59570   0.52490
C          C       0.81270   0.63420   0.48620
H          H       0.76370   0.67050   0.48230
C          C       0.91750   0.48880   0.56760
H          H       0.87600   0.49100   0.58860
C          C       0.98970   0.43920   0.57310
H          H       0.99820   0.41000   0.59820
C          C       0.76460   0.61460   0.55910
C          C       0.79490   0.62790   0.60050
H          H       0.85650   0.62530   0.60750
C          C       0.73470   0.64510   0.63130
H          H       0.75640   0.65290   0.65890
C          C       0.64240   0.65100   0.62160
C          C       0.61090   0.63930   0.58040
H          H       0.54940   0.64350   0.57340
C          C       0.67150   0.62140   0.54940
H          H       0.64970   0.61380   0.52180
C          C       0.57780   0.67010   0.65500
C          C       0.77650   0.73680   0.78030
C          C       0.80420   0.70720   0.82320
C          C       0.81120   0.62180   0.83100
H          H       0.80100   0.58350   0.80930
C          C       0.83320   0.59360   0.87120
H          H       0.83530   0.53610   0.87650
C          C       0.85210   0.64920   0.90380
C          C       0.84580   0.73440   0.89570
H          H       0.85770   0.77280   0.91720
C          C       0.82180   0.76260   0.85550
H          H       0.81770   0.82000   0.85040
C          C       0.87370   0.61700   0.94710
C          C       0.95010   0.56590   0.95580
C          C       0.96260   0.52770   0.99580
C          C       0.81570   0.63530   0.97890
H          H       0.76770   0.67200   0.97340
Cd         Cd      0.94160   0.69080   0.71250
O          O       0.52170   0.66500   0.78160
O          O       0.74590   0.84870   0.64110
O          O       0.85460   0.79430   0.68140
O          O       0.99600   0.65130   0.14110
Cd         Cd      0.95610   0.69290   0.20670
O          O       0.84100   0.60490   0.21630
O          O       0.85430   0.79200   0.18840
O          O       0.99420   0.69100   0.27560
O          O       0.88610   0.56000   0.70680
O          O       0.99690   0.64810   0.64980
O          O       0.97810   0.78960   0.76180
O          O       0.86380   0.06000   0.79320
O          O       0.65900   0.39510   0.78370
O          O       0.64560   0.20800   0.81160
O          O       0.75310   0.14810   0.85020
O          O       0.50580   0.30900   0.72450
O          O       0.75400   0.15130   0.35890
C          C       0.51520   0.14510   0.86870
C          C       0.60760   0.15100   0.87840
C          C       0.63910   0.13930   0.91960
H          H       0.70060   0.14350   0.92660
C          C       0.57850   0.12140   0.95060
H          H       0.60030   0.11380   0.97820
C          C       0.67210   0.17010   0.84500
C          C       0.51710   0.15860   0.37710
C          C       0.60910   0.16040   0.38730
C          C       0.64010   0.14660   0.42810
H          H       0.70180   0.14890   0.43510
C          C       0.57980   0.12910   0.45880
H          H       0.60110   0.12090   0.48640
C          C       0.67310   0.17340   0.35340
O          O       0.90900   0.10490   0.28370
O          O       0.96320   0.18850   0.75100
C          C       0.98610   0.25840   0.21080
C          C       0.95520   0.22350   0.16880
C          C       0.96900   0.13870   0.16050
H          H       0.99520   0.10390   0.18110
C          C       0.94310   0.10650   0.12100
H          H       0.95010   0.04950   0.11560
C          C       0.90710   0.15820   0.08970
C          C       0.89400   0.24220   0.09850
H          H       0.86950   0.27750   0.07760
C          C       0.91670   0.27450   0.13780
H          H       0.90600   0.33090   0.14350
C          C       0.88170   0.12040   0.04720
C          C       0.80480   0.07060   0.04130
C          C       0.78800   0.02760   0.00280
C          C       0.93730   0.13420   0.01380
H          H       0.98630   0.17050   0.01770
C          C       0.66750   0.01120   0.06760
H          H       0.62600   0.00900   0.08860
C          C       0.73960   0.06080   0.07310
H          H       0.74820   0.09000   0.09820
C          C       0.84890   0.03890   0.96930
C          C       0.92220   0.09570   0.97510
C          C       0.98530   0.11460   0.94090
C          C       0.95510   0.12790   0.89950
H          H       0.89340   0.12530   0.89250
H          H       0.99350   0.15290   0.84110
C          C       0.97340   0.23680   0.71970
C          C       0.94570   0.20720   0.67680
C          C       0.93880   0.12180   0.66900
H          H       0.94890   0.08350   0.69070
C          C       0.91680   0.09360   0.62880
H          H       0.91460   0.03610   0.62350
C          C       0.89790   0.14920   0.59620
C          C       0.90410   0.23440   0.60430
H          H       0.89230   0.27280   0.58280
C          C       0.92810   0.26260   0.64450
H          H       0.93220   0.32000   0.64960
C          C       0.87620   0.11700   0.55290
C          C       0.79990   0.06590   0.54420
C          C       0.78740   0.02770   0.50420
C          C       0.85130   0.04290   0.47260
C          C       0.92260   0.10030   0.48120
C          C       0.93430   0.13530   0.52110
H          H       0.98230   0.17200   0.52660
H          H       0.88450   0.00110   0.41480
C          C       0.98710   0.12370   0.44870
C          C       0.95630   0.14090   0.40780
H          H       0.89460   0.14050   0.40090
H          H       0.99600   0.16920   0.34970
C          C       0.65940   0.00360   0.56550
C          C       0.73130   0.05410   0.57380
H          H       0.73650   0.08190   0.59950
C          C       0.65100   0.96110   0.03070
C          C       0.57780   0.90430   0.02490
C          C       0.51460   0.88540   0.05910
C          C       0.54490   0.87210   0.10040
H          H       0.60650   0.87470   0.10750
H          H       0.50650   0.84710   0.15890
C          C       0.83250   0.98880   0.93240
H          H       0.87390   0.99100   0.91140
C          C       0.76030   0.93920   0.92690
H          H       0.75170   0.91000   0.90180
C          C       0.84060   0.99640   0.43450
C          C       0.76870   0.94590   0.42620
H          H       0.76360   0.91810   0.40050
C          C       0.51390   0.74160   0.78920
C          C       0.54470   0.77650   0.83120
C          C       0.53090   0.86130   0.83950
H          H       0.50480   0.89610   0.81890
C          C       0.55690   0.89350   0.87900
H          H       0.54990   0.95050   0.88440
C          C       0.59280   0.84180   0.91030
C          C       0.60600   0.75780   0.90150
H          H       0.63040   0.72250   0.92240
C          C       0.58320   0.72550   0.86220
H          H       0.59400   0.66910   0.85650
C          C       0.61820   0.87960   0.95280
C          C       0.69510   0.92940   0.95870
C          C       0.71190   0.97240   0.99720
C          C       0.56260   0.86580   0.98620
H          H       0.51370   0.82950   0.98230
C          C       0.52660   0.76320   0.28030
C          C       0.55420   0.79280   0.32320
C          C       0.56120   0.87820   0.33100
H          H       0.55110   0.91650   0.30930
C          C       0.58320   0.90640   0.37120
H          H       0.58540   0.96390   0.37650
C          C       0.60220   0.85080   0.40380
C          C       0.59580   0.76560   0.39570
H          H       0.60770   0.72720   0.41720
C          C       0.57190   0.73740   0.35550
H          H       0.56770   0.68000   0.35040
C          C       0.62380   0.88300   0.44710
C          C       0.70010   0.93410   0.45580
C          C       0.71260   0.97230   0.49580
C          C       0.64870   0.95710   0.52740
C          C       0.57740   0.89970   0.51880
C          C       0.56570   0.86470   0.47890
H          H       0.51770   0.82800   0.47340
H          H       0.61550   0.99890   0.58520
C          C       0.51290   0.87630   0.55130
C          C       0.54370   0.85910   0.59220
H          H       0.60540   0.85950   0.59910
H          H       0.50400   0.83080   0.65030
O          O       0.63620   0.94000   0.20680
O          O       0.74690   0.85190   0.14980
C          C       0.98470   0.85490   0.13130
C          C       0.89230   0.84900   0.12160
C          C       0.86090   0.86070   0.08040
H          H       0.79940   0.85650   0.07340
C          C       0.92150   0.87860   0.04940
H          H       0.89970   0.88620   0.02180
C          C       0.82780   0.82990   0.15500
C          C       0.98290   0.84140   0.62290
C          C       0.89090   0.83960   0.61270
C          C       0.85990   0.85340   0.57190
H          H       0.79820   0.85110   0.56490
C          C       0.92020   0.87090   0.54120
H          H       0.89890   0.87910   0.51360
C          C       0.82690   0.82660   0.64660
H          H       0.64860   0.45240   0.26930
H          H       0.55980   0.90640   0.68980
H          H       0.81680   0.61520   0.24320
H          H       0.88260   0.54360   0.67780
H          H       0.86740   0.04360   0.82220
H          H       0.68320   0.38480   0.75680
H          H       0.94020   0.09360   0.31020
H          H       0.67750   0.97850   0.22070
H          H       0.55770   0.48500   0.29460
H          H       0.54380   0.86630   0.73780
H          H       0.78780   0.61500   0.19150
H          H       0.93090   0.51640   0.72470
H          H       0.81910   0.01640   0.77530
H          H       0.63480   0.46030   0.78510
H          H       0.88280   0.04570   0.27010
H          H       0.62740   0.95720   0.17340
