data_crystal

_cell_length_a    11.40340
_cell_length_b    14.62740
_cell_length_c    16.10910
_cell_angle_alpha 80.44000
_cell_angle_beta  77.04000
_cell_angle_gamma 75.86000

_symmetry_space_group_name_Hall 'P 1'
_symmetry_space_group_name_H-M  'P 1'

loop_
_symmetry_equiv_pos_as_xyz
 'x,y,z'

loop_
_atom_site_label
_atom_site_type_symbol
_atom_site_fract_x
_atom_site_fract_y
_atom_site_fract_z
H          H       0.63680   0.94940   0.87270
H          H       0.26990   0.28560   0.18870
H          H       0.63660   0.94640   0.08600
H          H       0.64960   0.91850   0.00100
H          H       0.31190   0.21640   0.12450
H          H       0.32490   0.18850   0.03950
Mg         Mg      0.12940   0.10080   0.12960
H          H       0.97140   0.36890   0.62120
C          C       0.09290   0.26870   0.98100
C          C       0.02090   0.31980   0.91220
C          C       0.08240   0.36670   0.83840
H          H       0.16440   0.36870   0.83430
C          C       0.02270   0.41010   0.77150
H          H       0.06550   0.44000   0.72270
C          C       0.11340   0.24580   0.25260
C          C       0.04400   0.29780   0.32820
C          C       0.09820   0.35470   0.36190
H          H       0.17900   0.35940   0.33800
C          C       0.03430   0.40530   0.43110
H          H       0.07170   0.44500   0.45100
O          O       0.19290   0.28970   0.97910
O          O       0.04860   0.20430   0.03470
O          O       0.22130   0.25430   0.22470
O          O       0.05860   0.19520   0.22430
O          O       0.28760   0.16410   0.09220
Mg         Mg      0.45800   0.06920   0.06410
O          O       0.54300   0.13740   0.12090
C          C       0.47230   0.38030   0.58150
C          C       0.52460   0.33880   0.50480
H          H       0.58680   0.28420   0.50570
C          C       0.48580   0.37700   0.42770
C          C       0.34430   0.49780   0.34850
H          H       0.38120   0.47170   0.29760
C          C       0.24590   0.57240   0.34830
H          H       0.21760   0.59540   0.29740
C          C       0.07560   0.68830   0.42820
C          C       0.01760   0.72380   0.50520
C          C       0.06540   0.69290   0.58040
C          C       0.22620   0.58530   0.65530
H          H       0.19240   0.61410   0.70510
C          C       0.32300   0.51110   0.65570
H          H       0.35510   0.49040   0.70540
C          C       0.37790   0.46310   0.58040
C          C       0.39280   0.45830   0.42450
C          C       0.18390   0.61700   0.42450
C          C       0.17350   0.62140   0.58000
C          C       0.33500   0.50260   0.50140
C          C       0.23210   0.58040   0.50160
C          C       0.59770   0.16500   0.89830
C          C       0.56840   0.22190   0.81600
C          C       0.44820   0.24190   0.80170
H          H       0.38720   0.21940   0.84300
C          C       0.41860   0.29450   0.72720
H          H       0.33730   0.30800   0.71980
C          C       0.50730   0.32810   0.66260
C          C       0.62750   0.30730   0.67630
H          H       0.68880   0.32870   0.63450
C          C       0.65740   0.25490   0.75200
H          H       0.73850   0.24170   0.75980
C          C       0.63330   0.15780   0.13680
C          C       0.60780   0.21240   0.21340
C          C       0.67680   0.27020   0.22560
H          H       0.74980   0.27450   0.18700
C          C       0.64140   0.32360   0.29440
H          H       0.69170   0.36190   0.30170
C          C       0.53180   0.32040   0.35240
C          C       0.46390   0.25980   0.34050
H          H       0.39160   0.25460   0.37960
C          C       0.49870   0.20660   0.27310
H          H       0.45000   0.16650   0.26700
C          C       0.01690   0.72890   0.35160
C          C       0.07900   0.77490   0.27660
H          H       0.16150   0.77590   0.27190
C          C       0.01920   0.81850   0.21000
H          H       0.06190   0.84790   0.16090
C          C       0.99950   0.74200   0.65870
C          C       0.05410   0.79510   0.69330
H          H       0.13660   0.79640   0.67180
C          C       0.98910   0.84850   0.76130
H          H       0.02630   0.88930   0.77980
O          O       0.50610   0.14580   0.95140
O          O       0.70790   0.13720   0.90720
O          O       0.74060   0.13320   0.09550
O          O       0.95710   0.07650   0.96390
O          O       0.95890   0.06190   0.16430
O          O       0.20810   0.00120   0.22100
O          O       0.17540   0.00520   0.03270
C          C       0.44370   0.75810   0.54670
C          C       0.39140   0.79960   0.62340
H          H       0.32920   0.85420   0.62250
C          C       0.43020   0.76140   0.70050
C          C       0.57170   0.64060   0.77970
H          H       0.53480   0.66670   0.83060
C          C       0.67010   0.56600   0.77990
H          H       0.69840   0.54300   0.83080
C          C       0.84040   0.45010   0.70000
C          C       0.89840   0.41460   0.62300
C          C       0.85060   0.44550   0.54780
C          C       0.68980   0.55310   0.47290
H          H       0.72360   0.52430   0.42310
C          C       0.59300   0.62730   0.47250
H          H       0.56090   0.64800   0.42280
C          C       0.53810   0.67530   0.54780
C          C       0.52320   0.68010   0.70370
C          C       0.73210   0.52140   0.70370
C          C       0.74250   0.51700   0.54820
C          C       0.58100   0.63580   0.62680
C          C       0.68390   0.55800   0.62660
C          C       0.31830   0.97340   0.22990
C          C       0.34760   0.91650   0.31230
C          C       0.46780   0.89650   0.32650
H          H       0.52880   0.91900   0.28520
C          C       0.49740   0.84390   0.40100
H          H       0.57870   0.83040   0.40840
C          C       0.40870   0.81030   0.46570
C          C       0.28850   0.83110   0.45190
H          H       0.22720   0.80970   0.49370
C          C       0.25860   0.88350   0.37620
H          H       0.17750   0.89670   0.36840
C          C       0.28270   0.98060   0.99140
C          C       0.30820   0.92600   0.91480
C          C       0.23920   0.86820   0.90260
H          H       0.16620   0.86390   0.94120
C          C       0.27460   0.81480   0.83380
H          H       0.22430   0.77650   0.82650
C          C       0.38420   0.81800   0.77580
C          C       0.45210   0.87860   0.78770
H          H       0.52440   0.88380   0.74860
C          C       0.41730   0.93180   0.85510
H          H       0.46600   0.97190   0.86120
C          C       0.89910   0.40950   0.77660
C          C       0.83700   0.36350   0.85160
H          H       0.75450   0.36250   0.85630
C          C       0.89680   0.31990   0.91820
H          H       0.85410   0.29050   0.96730
C          C       0.91650   0.39640   0.46950
C          C       0.86190   0.34330   0.43490
H          H       0.77940   0.34200   0.45640
C          C       0.92690   0.28990   0.36690
H          H       0.88970   0.24910   0.34840
O          O       0.40990   0.99260   0.17680
O          O       0.37300   0.00100   0.00730
O          O       0.62840   0.97430   0.03600
Mg         Mg      0.78660   0.03760   0.99860
O          O       0.86740   0.93410   0.09350
H          H       0.94460   0.76950   0.50700
C          C       0.82310   0.86970   0.14720
C          C       0.89510   0.81860   0.21600
C          C       0.83360   0.77170   0.28980
H          H       0.75160   0.76970   0.29390
C          C       0.89330   0.72830   0.35670
H          H       0.85050   0.69840   0.40550
C          C       0.80260   0.89260   0.87550
C          C       0.87200   0.84060   0.80000
C          C       0.81780   0.78370   0.76630
H          H       0.73700   0.77900   0.79020
C          C       0.88170   0.73310   0.69710
H          H       0.84430   0.69340   0.67720
O          O       0.72310   0.84870   0.14920
O          O       0.69470   0.88410   0.90350
O          O       0.85740   0.94320   0.90390
H          H       0.97450   0.09670   0.90750
H          H       0.96150   0.12460   0.99250
H          H       0.94150   0.04170   0.22070
H          H       0.95450   0.01380   0.13570
