data_crystal

_cell_length_a    38.93200
_cell_length_b    38.93200
_cell_length_c    38.93200
_cell_angle_alpha 60.00000
_cell_angle_beta  60.00000
_cell_angle_gamma 60.00000

_symmetry_space_group_name_Hall 'P 1'
_symmetry_space_group_name_H-M  'P 1'

loop_
_symmetry_equiv_pos_as_xyz
 'x,y,z'

loop_
_atom_site_label
_atom_site_type_symbol
_atom_site_fract_x
_atom_site_fract_y
_atom_site_fract_z
C          C       0.73540   0.60940   0.60940
C          C       0.78240   0.58640   0.58640
C          C       0.80170   0.60600   0.54790
C          C       0.84130   0.58610   0.52770
C          C       0.86050   0.54520   0.54520
C          C       0.90610   0.52170   0.52170
C          C       0.91100   0.50000   0.50000
C          C       0.93960   0.52360   0.52360
C          C       0.93750   0.54510   0.54510
C          C       0.98140   0.50000   0.50000
C          C       0.95420   0.39060   0.39060
C          C       0.95520   0.41360   0.41360
C          C       0.95560   0.39390   0.45220
C          C       0.95510   0.41390   0.47230
C          C       0.95090   0.45480   0.45480
C          C       0.94950   0.47830   0.47830
C          C       0.98680   0.47640   0.47640
C          C       0.02770   0.45490   0.45490
C          C       0.04580   0.60940   0.60940
C          C       0.04480   0.58640   0.58640
C          C       0.04430   0.54780   0.60600
C          C       0.04490   0.52770   0.58610
C          C       0.04920   0.54520   0.54520
C          C       0.05050   0.52170   0.52170
C          C       0.08900   0.50000   0.50000
C          C       0.01320   0.52360   0.52360
C          C       0.97230   0.54510   0.54510
C          C       0.01860   0.50000   0.50000
C          C       0.26460   0.39060   0.39060
C          C       0.21760   0.41360   0.41360
C          C       0.19820   0.45210   0.39400
C          C       0.15870   0.47230   0.41390
C          C       0.13960   0.45480   0.45480
C          C       0.09390   0.47830   0.47830
C          C       0.06040   0.47640   0.47640
C          C       0.06250   0.45490   0.45490
C          C       0.95560   0.45210   0.39400
C          C       0.95510   0.47230   0.41390
C          C       0.80170   0.54780   0.60600
C          C       0.84130   0.52770   0.58610
C          C       0.19820   0.39390   0.45220
C          C       0.15870   0.41390   0.47230
C          C       0.04430   0.60600   0.54790
C          C       0.04490   0.58610   0.52770
C          C       0.60940   0.60940   0.73540
C          C       0.58640   0.58640   0.78240
C          C       0.60600   0.54780   0.80180
C          C       0.58610   0.52770   0.84130
C          C       0.54520   0.54520   0.86040
C          C       0.52170   0.52170   0.90610
C          C       0.50000   0.50000   0.91100
C          C       0.52360   0.52360   0.93960
C          C       0.54510   0.54510   0.93750
C          C       0.50000   0.50000   0.98140
C          C       0.39060   0.39060   0.95420
C          C       0.41360   0.41360   0.95520
C          C       0.39390   0.45220   0.95560
C          C       0.41390   0.47230   0.95510
C          C       0.45480   0.45470   0.95080
C          C       0.47830   0.47830   0.94950
C          C       0.47640   0.47640   0.98680
C          C       0.45490   0.45490   0.02770
C          C       0.60940   0.60940   0.04580
C          C       0.58640   0.58640   0.04480
C          C       0.54780   0.60600   0.04440
C          C       0.52770   0.58610   0.04490
C          C       0.54530   0.54510   0.04910
C          C       0.52170   0.52170   0.05050
C          C       0.50000   0.50000   0.08900
C          C       0.52360   0.52360   0.01320
C          C       0.54510   0.54510   0.97230
C          C       0.50000   0.50000   0.01860
C          C       0.39060   0.39060   0.26460
C          C       0.41360   0.41360   0.21760
C          C       0.45220   0.39390   0.19830
C          C       0.47230   0.41390   0.15870
C          C       0.45480   0.45480   0.13960
C          C       0.47830   0.47830   0.09390
C          C       0.47640   0.47640   0.06040
C          C       0.45490   0.45490   0.06250
C          C       0.45220   0.39390   0.95560
C          C       0.47230   0.41390   0.95510
C          C       0.54780   0.60600   0.80180
C          C       0.52770   0.58610   0.84130
C          C       0.39390   0.45220   0.19830
C          C       0.41390   0.47230   0.15870
C          C       0.60600   0.54790   0.04440
C          C       0.58610   0.52770   0.04490
C          C       0.60940   0.73540   0.60940
C          C       0.58640   0.78240   0.58640
C          C       0.54780   0.80170   0.60600
C          C       0.52770   0.84130   0.58610
C          C       0.54520   0.86040   0.54510
C          C       0.52170   0.90610   0.52170
C          C       0.50000   0.91100   0.50000
C          C       0.52360   0.93960   0.52360
C          C       0.54510   0.93750   0.54510
C          C       0.50000   0.98140   0.50000
C          C       0.39060   0.95420   0.39060
C          C       0.41360   0.95520   0.41360
C          C       0.45210   0.95560   0.39400
C          C       0.47230   0.95510   0.41390
C          C       0.45490   0.95080   0.45470
C          C       0.47830   0.94950   0.47830
C          C       0.47640   0.98680   0.47640
C          C       0.45490   0.02770   0.45490
C          C       0.60940   0.04580   0.60940
C          C       0.58640   0.04480   0.58640
C          C       0.60600   0.04430   0.54790
C          C       0.58610   0.04490   0.52770
C          C       0.54520   0.04920   0.54510
C          C       0.52170   0.05050   0.52170
C          C       0.50000   0.08900   0.50000
C          C       0.52360   0.01320   0.52360
C          C       0.54510   0.97230   0.54510
C          C       0.50000   0.01860   0.50000
C          C       0.39060   0.26460   0.39060
C          C       0.41360   0.21760   0.41360
C          C       0.39390   0.19830   0.45220
C          C       0.41390   0.15870   0.47230
C          C       0.45490   0.13960   0.45470
C          C       0.47830   0.09390   0.47830
C          C       0.47640   0.06040   0.47640
C          C       0.45490   0.06250   0.45490
C          C       0.39390   0.95560   0.45220
C          C       0.41390   0.95510   0.47230
C          C       0.60600   0.80170   0.54790
C          C       0.58610   0.84130   0.52770
C          C       0.45210   0.19830   0.39400
C          C       0.47230   0.15870   0.41390
C          C       0.54780   0.04430   0.60600
C          C       0.52770   0.04490   0.58610
C          C       0.04580   0.73540   0.60940
C          C       0.04480   0.78240   0.58640
C          C       0.04440   0.80170   0.54790
C          C       0.04490   0.84130   0.52770
C          C       0.04920   0.86040   0.54520
C          C       0.05050   0.90610   0.52170
C          C       0.08900   0.91100   0.50000
C          C       0.01320   0.93960   0.52360
C          C       0.97230   0.93750   0.54510
C          C       0.01860   0.98140   0.50000
C          C       0.26460   0.95420   0.39060
C          C       0.21760   0.95520   0.41360
C          C       0.19820   0.95560   0.45220
C          C       0.15870   0.95510   0.47230
C          C       0.13960   0.95080   0.45480
C          C       0.09390   0.94950   0.47830
C          C       0.06040   0.98680   0.47640
C          C       0.73540   0.04580   0.60940
C          C       0.78240   0.04480   0.58640
C          C       0.80170   0.04430   0.60600
C          C       0.84130   0.04490   0.58610
C          C       0.86050   0.04910   0.54520
C          C       0.90610   0.05050   0.52170
C          C       0.91100   0.08900   0.50000
C          C       0.93960   0.01320   0.52360
C          C       0.93750   0.97230   0.54510
C          C       0.98140   0.01860   0.50000
C          C       0.95420   0.26460   0.39060
C          C       0.95520   0.21760   0.41360
C          C       0.95560   0.19830   0.39400
C          C       0.95510   0.15870   0.41390
C          C       0.95090   0.13950   0.45480
C          C       0.94950   0.09390   0.47830
C          C       0.98680   0.06040   0.47640
C          C       0.19820   0.95560   0.39400
C          C       0.15870   0.95510   0.41390
C          C       0.04440   0.80170   0.60600
C          C       0.04490   0.84130   0.58610
C          C       0.95560   0.19830   0.45220
C          C       0.95510   0.15870   0.47230
C          C       0.80170   0.04430   0.54790
C          C       0.84130   0.04490   0.52770
C          C       0.04580   0.60940   0.73540
C          C       0.04480   0.58640   0.78240
C          C       0.04440   0.60600   0.80180
C          C       0.04490   0.58610   0.84130
C          C       0.04920   0.54520   0.86040
C          C       0.05050   0.52170   0.90610
C          C       0.08900   0.50000   0.91100
C          C       0.01320   0.52360   0.93960
C          C       0.01860   0.50000   0.98140
C          C       0.26460   0.39060   0.95420
C          C       0.21760   0.41360   0.95520
C          C       0.19820   0.39390   0.95560
C          C       0.15870   0.41390   0.95510
C          C       0.13960   0.45480   0.95080
C          C       0.09390   0.47830   0.94950
C          C       0.06040   0.47640   0.98680
C          C       0.73540   0.60940   0.04580
C          C       0.78240   0.58640   0.04480
C          C       0.80170   0.54790   0.04440
C          C       0.84130   0.52770   0.04490
C          C       0.86050   0.54520   0.04910
C          C       0.90610   0.52170   0.05050
C          C       0.91100   0.50000   0.08900
C          C       0.93960   0.52360   0.01320
C          C       0.98140   0.50000   0.01860
C          C       0.95420   0.39060   0.26460
C          C       0.95520   0.41360   0.21760
C          C       0.95560   0.45220   0.19830
C          C       0.95510   0.47230   0.15870
C          C       0.95090   0.45480   0.13950
C          C       0.94950   0.47830   0.09390
C          C       0.98680   0.47640   0.06040
C          C       0.19820   0.45220   0.95560
C          C       0.15870   0.47230   0.95510
C          C       0.04440   0.54780   0.80180
C          C       0.04490   0.52770   0.84130
C          C       0.95570   0.39390   0.19830
C          C       0.95510   0.41390   0.15870
C          C       0.80170   0.60600   0.04440
C          C       0.84130   0.58610   0.04490
C          C       0.60940   0.04580   0.73540
C          C       0.58640   0.04480   0.78240
C          C       0.54780   0.04440   0.80180
C          C       0.52770   0.04490   0.84130
C          C       0.54520   0.04910   0.86050
C          C       0.52170   0.05050   0.90610
C          C       0.50000   0.08900   0.91100
C          C       0.52360   0.01320   0.93960
C          C       0.50000   0.01860   0.98140
C          C       0.39060   0.26460   0.95420
C          C       0.41360   0.21760   0.95520
C          C       0.45210   0.19820   0.95560
C          C       0.47230   0.15870   0.95510
C          C       0.45480   0.13950   0.95080
C          C       0.47830   0.09390   0.94950
C          C       0.47640   0.06040   0.98680
C          C       0.60940   0.73540   0.04580
C          C       0.58640   0.78240   0.04480
C          C       0.60600   0.80170   0.04440
C          C       0.58610   0.84130   0.04490
C          C       0.54520   0.86040   0.04920
C          C       0.52170   0.90610   0.05050
C          C       0.50000   0.91100   0.08900
C          C       0.52360   0.93960   0.01320
C          C       0.50000   0.98140   0.01860
C          C       0.39060   0.95420   0.26460
C          C       0.41360   0.95520   0.21760
C          C       0.39400   0.95560   0.19830
C          C       0.41390   0.95510   0.15870
C          C       0.45480   0.95080   0.13960
C          C       0.47830   0.94950   0.09390
C          C       0.47640   0.98680   0.06040
C          C       0.39400   0.19820   0.95560
C          C       0.41390   0.15870   0.95510
C          C       0.60600   0.04440   0.80180
C          C       0.58610   0.04490   0.84130
C          C       0.45210   0.95560   0.19830
C          C       0.47230   0.95510   0.15870
C          C       0.54790   0.80170   0.04440
C          C       0.52770   0.84130   0.04490
O          O       0.71730   0.59030   0.64650
O          O       0.63380   0.63380   0.63380
O          O       0.66920   0.66920   0.66920
O          O       0.95410   0.40970   0.35350
O          O       0.04590   0.64650   0.59030
O          O       0.28270   0.35350   0.40970
O          O       0.95410   0.35350   0.40970
O          O       0.71730   0.64650   0.59030
O          O       0.28270   0.40970   0.35350
O          O       0.04590   0.59030   0.64650
O          O       0.59030   0.64650   0.71730
O          O       0.40970   0.35350   0.95410
O          O       0.64650   0.59030   0.04590
O          O       0.35350   0.40970   0.28270
O          O       0.35350   0.40970   0.95410
O          O       0.64650   0.59030   0.71730
O          O       0.40970   0.35350   0.28270
O          O       0.59030   0.64650   0.04590
O          O       0.64650   0.71730   0.59030
O          O       0.35350   0.95410   0.40970
O          O       0.59030   0.04590   0.64650
O          O       0.40970   0.28270   0.35350
O          O       0.40970   0.95410   0.35350
O          O       0.59030   0.71730   0.64650
O          O       0.35350   0.28270   0.40970
O          O       0.64650   0.04590   0.59030
O          O       0.90140   0.36620   0.36620
O          O       0.36620   0.90140   0.36620
O          O       0.36620   0.36620   0.90140
O          O       0.40970   0.95410   0.28270
O          O       0.35350   0.28270   0.95410
O          O       0.28270   0.40970   0.95410
O          O       0.95410   0.35350   0.28270
O          O       0.95410   0.28270   0.40970
O          O       0.28270   0.95410   0.35350
O          O       0.35350   0.95410   0.28270
O          O       0.40970   0.28270   0.95410
O          O       0.28270   0.95410   0.40970
O          O       0.95410   0.28270   0.35350
O          O       0.28270   0.35350   0.95410
O          O       0.95410   0.40970   0.28270
O          O       0.09860   0.63380   0.63380
O          O       0.04590   0.71730   0.64650
O          O       0.71730   0.04590   0.59030
O          O       0.04590   0.71730   0.59030
O          O       0.71730   0.04590   0.64650
O          O       0.04590   0.59030   0.71730
O          O       0.71730   0.64650   0.04590
O          O       0.04590   0.64650   0.71730
O          O       0.71730   0.59030   0.04590
O          O       0.36620   0.36620   0.36620
O          O       0.33080   0.33080   0.33080
O          O       0.64650   0.04590   0.71730
O          O       0.63380   0.09860   0.63380
O          O       0.59030   0.71730   0.04590
O          O       0.59030   0.04590   0.71730
O          O       0.64650   0.71730   0.04590
O          O       0.63380   0.63380   0.09860
U          U       0.65150   0.65150   0.65150
U          U       0.95450   0.34850   0.34850
U          U       0.34850   0.95450   0.34850
U          U       0.34850   0.34850   0.95450
U          U       0.65150   0.65150   0.04550
U          U       0.34850   0.34850   0.34850
U          U       0.65150   0.04550   0.65150
U          U       0.04550   0.65150   0.65150
H          H       0.78770   0.63450   0.53410
H          H       0.85600   0.60140   0.50060
H          H       0.88660   0.50000   0.50000
H          H       0.91050   0.56030   0.56030
H          H       0.95630   0.36550   0.46590
H          H       0.95800   0.39860   0.49940
H          H       0.03110   0.43970   0.43970
H          H       0.04370   0.53410   0.63450
H          H       0.04200   0.50060   0.60140
H          H       0.11340   0.50000   0.50000
H          H       0.96890   0.56030   0.56030
H          H       0.21230   0.46590   0.36550
H          H       0.14400   0.49940   0.39860
H          H       0.08950   0.43970   0.43970
H          H       0.95630   0.46590   0.36550
H          H       0.95800   0.49940   0.39860
H          H       0.78770   0.53410   0.63450
H          H       0.85600   0.50060   0.60140
H          H       0.21230   0.36550   0.46590
H          H       0.14400   0.39860   0.49940
H          H       0.04370   0.63450   0.53410
H          H       0.04200   0.60140   0.50060
H          H       0.63450   0.53410   0.78770
H          H       0.60140   0.50060   0.85600
H          H       0.50000   0.50000   0.88660
H          H       0.56030   0.56030   0.91050
H          H       0.36550   0.46590   0.95630
H          H       0.39860   0.49940   0.95800
H          H       0.43970   0.43970   0.03110
H          H       0.53410   0.63450   0.04370
H          H       0.50060   0.60140   0.04200
H          H       0.50000   0.50000   0.11340
H          H       0.56030   0.56030   0.96890
H          H       0.46590   0.36550   0.21230
H          H       0.49940   0.39860   0.14400
H          H       0.43970   0.43970   0.08950
H          H       0.46590   0.36550   0.95630
H          H       0.49940   0.39860   0.95800
H          H       0.53410   0.63450   0.78770
H          H       0.50060   0.60140   0.85600
H          H       0.36550   0.46590   0.21230
H          H       0.39860   0.49940   0.14400
H          H       0.63450   0.53410   0.04370
H          H       0.60140   0.50060   0.04200
H          H       0.53410   0.78770   0.63450
H          H       0.50060   0.85600   0.60140
H          H       0.50000   0.88660   0.50000
H          H       0.56030   0.91050   0.56030
H          H       0.46590   0.95630   0.36550
H          H       0.49940   0.95800   0.39860
H          H       0.43970   0.03110   0.43970
H          H       0.63450   0.04370   0.53410
H          H       0.60140   0.04200   0.50060
H          H       0.50000   0.11340   0.50000
H          H       0.56030   0.96890   0.56030
H          H       0.36550   0.21230   0.46590
H          H       0.39860   0.14400   0.49940
H          H       0.43970   0.08950   0.43970
H          H       0.36550   0.95630   0.46590
H          H       0.39860   0.95800   0.49940
H          H       0.63450   0.78770   0.53410
H          H       0.60140   0.85600   0.50060
H          H       0.46590   0.21230   0.36550
H          H       0.49940   0.14400   0.39860
H          H       0.53410   0.04370   0.63450
H          H       0.50060   0.04200   0.60140
H          H       0.04370   0.78770   0.53410
H          H       0.04200   0.85600   0.50060
H          H       0.11340   0.88660   0.50000
H          H       0.96890   0.91050   0.56030
H          H       0.21230   0.95630   0.46590
H          H       0.14400   0.95800   0.49940
H          H       0.78770   0.04370   0.63450
H          H       0.85600   0.04200   0.60140
H          H       0.88660   0.11340   0.50000
H          H       0.91050   0.96890   0.56030
H          H       0.95630   0.21230   0.36550
H          H       0.95800   0.14400   0.39860
H          H       0.21230   0.95630   0.36550
H          H       0.14400   0.95800   0.39860
H          H       0.04370   0.78770   0.63450
H          H       0.04200   0.85600   0.60140
H          H       0.95630   0.21230   0.46590
H          H       0.95800   0.14400   0.49940
H          H       0.78770   0.04370   0.53410
H          H       0.85600   0.04200   0.50060
H          H       0.04370   0.63450   0.78770
H          H       0.04200   0.60140   0.85600
H          H       0.11340   0.50000   0.88660
H          H       0.21230   0.36550   0.95630
H          H       0.14400   0.39860   0.95800
H          H       0.78770   0.53410   0.04370
H          H       0.85600   0.50060   0.04200
H          H       0.88660   0.50000   0.11340
H          H       0.95630   0.46590   0.21230
H          H       0.95800   0.49940   0.14400
H          H       0.21230   0.46590   0.95630
H          H       0.14400   0.49940   0.95800
H          H       0.04370   0.53410   0.78770
H          H       0.04200   0.50060   0.85600
H          H       0.95630   0.36550   0.21230
H          H       0.95800   0.39860   0.14400
H          H       0.78770   0.63450   0.04370
H          H       0.85600   0.60140   0.04200
H          H       0.53410   0.04370   0.78770
H          H       0.50060   0.04200   0.85600
H          H       0.50000   0.11340   0.88660
H          H       0.46590   0.21230   0.95630
H          H       0.49940   0.14400   0.95800
H          H       0.63450   0.78770   0.04370
H          H       0.60140   0.85600   0.04200
H          H       0.50000   0.88660   0.11340
H          H       0.36550   0.95630   0.21230
H          H       0.39860   0.95800   0.14400
H          H       0.36550   0.21230   0.95630
H          H       0.39860   0.14400   0.95800
H          H       0.63450   0.04370   0.78770
H          H       0.60140   0.04200   0.85600
H          H       0.46590   0.95630   0.21230
H          H       0.49940   0.95800   0.14400
H          H       0.53410   0.78770   0.04370
H          H       0.50060   0.85600   0.04200
C          C       0.06250   0.02770   0.45490
C          C       0.02770   0.06250   0.45490
O          O       0.00760   0.33080   0.33080
H          H       0.08950   0.03110   0.43970
H          H       0.03110   0.08950   0.43970
C          C       0.97230   0.54510   0.93750
C          C       0.93750   0.54510   0.97230
O          O       0.33080   0.00760   0.33080
H          H       0.96890   0.56030   0.91050
H          H       0.91050   0.56030   0.96890
C          C       0.06250   0.45490   0.02770
C          C       0.02770   0.45490   0.06250
O          O       0.33080   0.33080   0.00760
H          H       0.08950   0.43970   0.03110
H          H       0.03110   0.43970   0.08950
C          C       0.54510   0.97230   0.93750
C          C       0.54510   0.93750   0.97230
O          O       0.99240   0.66920   0.66920
H          H       0.56030   0.96890   0.91050
H          H       0.56030   0.91050   0.96890
C          C       0.45490   0.06250   0.02770
C          C       0.45490   0.02770   0.06250
O          O       0.66920   0.99240   0.66920
H          H       0.43970   0.08950   0.03110
H          H       0.43970   0.03110   0.08950
O          O       0.66920   0.66920   0.99240
