data_crystal

_cell_length_a    33.24300
_cell_length_b    13.33900
_cell_length_c    24.38800
_cell_angle_alpha 90.00000
_cell_angle_beta  116.41000
_cell_angle_gamma 90.00000

_symmetry_space_group_name_Hall 'P 1'
_symmetry_space_group_name_H-M  'P 1'

loop_
_symmetry_equiv_pos_as_xyz
 'x,y,z'

loop_
_atom_site_label
_atom_site_type_symbol
_atom_site_fract_x
_atom_site_fract_y
_atom_site_fract_z
C          C       0.09430   1.08470   0.28710
H          H       0.11040   1.14150   0.30840
C          C       0.05210   1.09700   0.23840
H          H       0.04010   1.16180   0.22730
C          C       0.02760   1.01600   0.20610
C          C       0.18230   1.09920   0.40220
C          C       0.20220   1.16720   0.37860
H          H       0.20920   1.14770   0.34690
C          C       0.21170   1.26500   0.40210
H          H       0.22570   1.31060   0.38670
C          C       0.20080   1.29330   0.44630
H          H       0.20700   1.35930   0.46120
C          C       0.18110   1.23020   0.46990
H          H       0.17320   1.25230   0.50040
C          C       0.17220   1.12850   0.44810
H          H       0.15950   1.08280   0.46540
Ag         Ag      0.16130   0.84510   0.44000
P          P       0.16770   0.97320   0.37140
C          C       0.11330   0.98930   0.30510
C          C       0.01330   0.65200   0.17580
H          H       0.02410   0.58670   0.18840
C          C       0.08240   0.72470   0.25870
H          H       0.09460   0.66020   0.27100
C          C       0.10650   0.80390   0.28840
H          H       0.13540   0.79390   0.32030
C          C       0.04580   0.91720   0.22320
C          C       0.02050   0.83300   0.19020
C          C       0.03880   0.73430   0.20880
C          C       0.08940   0.90490   0.27320
C          C       0.20570   0.94660   0.33800
C          C       0.24640   0.90340   0.37470
H          H       0.25350   0.88610   0.41530
C          C       0.27660   0.88540   0.35160
H          H       0.30470   0.85710   0.37720
C          C       0.26690   0.90740   0.29300
H          H       0.28830   0.89680   0.27820
C          C       0.22550   0.94560   0.25560
H          H       0.21760   0.95750   0.21400
C          C       0.19570   0.96620   0.27820
H          H       0.16770   0.99460   0.25240
S          S       0.26420   0.86660   0.56710
O          O       0.22200   0.81430   0.54170
O          O       0.26710   0.94830   0.53050
O          O       0.30230   0.80120   0.59320
C          C       0.26440   0.92900   0.63330
F          F       0.23190   0.99680   0.61650
F          F       0.25830   0.86370   0.66930
F          F       0.30210   0.97540   0.66570
Ag         Ag      0.33870   0.65490   0.56000
P          P       0.10040   0.77260   0.45970
O          O       0.19770   0.69880   0.40680
C          C       0.03920   0.94580   0.37570
H          H       0.06770   0.95560   0.40880
C          C       0.04520   0.76040   0.39450
C          C       0.02680   0.66520   0.37420
H          H       0.04280   0.60850   0.39590
C          C       0.02180   0.84480   0.36030
C          C       0.11130   0.64740   0.49180
C          C       0.14180   0.58930   0.48250
H          H       0.15710   0.61550   0.46120
C          C       0.14990   0.49170   0.50450
H          H       0.17000   0.45170   0.49670
C          C       0.13030   0.45370   0.53590
H          H       0.13670   0.38770   0.55070
C          C       0.10020   0.51070   0.54720
H          H       0.08660   0.48400   0.57050
C          C       0.08960   0.60950   0.52360
H          H       0.06830   0.64800   0.52980
C          C       0.09140   0.84280   0.51710
C          C       0.12950   0.87210   0.56770
H          H       0.15800   0.86060   0.56960
C          C       0.12560   0.91850   0.61570
H          H       0.15170   0.93440   0.65130
C          C       0.08510   0.94190   0.61270
H          H       0.08330   0.97680   0.64500
C          C       0.04810   0.91500   0.56390
H          H       0.01990   0.93160   0.56170
C          C       0.05020   0.86270   0.51570
H          H       0.02370   0.84100   0.48240
S          S      -0.26420   0.86660  -0.06710
O          O      -0.22200   0.81430  -0.04170
O          O      -0.26720   0.94830  -0.03050
O          O      -0.30230   0.80120  -0.09320
C          C      -0.26440   0.92900  -0.13330
F          F      -0.23190   0.99680  -0.11650
F          F      -0.25830   0.86370  -0.16930
F          F      -0.30210   0.97540  -0.16570
Ag         Ag      0.66130   0.65490   0.94000
P          P       0.33230   0.52680   0.62860
P          P       0.60040   0.72740   0.95970
C          C       0.38670   0.51070   0.69490
C          C       0.40570   0.41530   0.71290
H          H       0.38960   0.35850   0.69160
C          C       0.44790   0.40300   0.76160
H          H       0.45990   0.33820   0.77270
C          C       0.51610   0.47490   0.84460
H          H       0.52880   0.41080   0.85610
C          C       0.53920   0.55420   0.87570
H          H       0.56770   0.54440   0.90880
C          C       0.54520   0.73960   0.89450
C          C       0.52680   0.83480   0.87420
H          H       0.54280   0.89150   0.89590
C          C       0.48670   0.84800   0.82420
H          H       0.47590   0.91330   0.81160
C          C       0.41760   0.77530   0.74130
H          H       0.40540   0.83980   0.72900
C          C       0.39350   0.69610   0.71160
H          H       0.36460   0.70610   0.67970
C          C       0.45420   0.58280   0.77680
C          C       0.47950   0.66700   0.80980
C          C       0.47240   0.48400   0.79390
C          C       0.52180   0.65520   0.86030
C          C       0.46120   0.76570   0.79120
C          C       0.41060   0.59510   0.72680
C          C       0.29430   0.55340   0.66200
C          C       0.25360   0.59660   0.62530
H          H       0.24650   0.61390   0.58470
C          C       0.22340   0.61460   0.64840
H          H       0.19530   0.64290   0.62280
C          C       0.23310   0.59260   0.70700
H          H       0.21170   0.60320   0.72180
C          C       0.27450   0.55440   0.74440
H          H       0.28240   0.54250   0.78600
C          C       0.30430   0.53380   0.72180
H          H       0.33230   0.50540   0.74760
C          C       0.31770   0.40080   0.59780
C          C       0.29780   0.33280   0.62140
H          H       0.29080   0.35230   0.65310
C          C       0.28830   0.23500   0.59790
H          H       0.27430   0.18940   0.61330
C          C       0.29920   0.20670   0.55370
H          H       0.29300   0.14070   0.53880
C          C       0.31890   0.26980   0.53010
H          H       0.32680   0.24770   0.49960
C          C       0.32780   0.37150   0.55190
H          H       0.34050   0.41720   0.53460
C          C       0.61130   0.85260   0.99180
C          C       0.64180   0.91070   0.98250
H          H       0.65710   0.88450   0.96120
H          H       0.52370   0.65900   0.98240
S          S       0.23580   0.63340   0.43290
O          O       0.27800   0.68570   0.45830
O          O       0.23280   0.55170   0.46950
C          C       0.23560   0.57100   0.36670
F          F       0.26810   0.50320   0.38350
F          F       0.24170   0.63630   0.33070
F          F       0.19790   0.52460   0.33430
P          P       0.39960   0.72740   0.54030
P          P       0.66770   0.52680   0.87140
C          C       0.61330   0.51070   0.80510
C          C       0.59430   0.41530   0.78710
H          H       0.61040   0.35850   0.80840
C          C       0.55210   0.40300   0.73840
H          H       0.54010   0.33820   0.72730
C          C       0.48390   0.47490   0.65540
H          H       0.47120   0.41080   0.64390
C          C       0.46080   0.55420   0.62430
H          H       0.43230   0.54440   0.59120
C          C       0.45480   0.73960   0.60550
C          C       0.47320   0.83480   0.62580
H          H       0.45720   0.89150   0.60410
C          C       0.51330   0.84800   0.67580
H          H       0.52410   0.91330   0.68840
C          C       0.58240   0.77530   0.75870
H          H       0.59460   0.83980   0.77100
C          C       0.60650   0.69610   0.78840
H          H       0.63540   0.70610   0.82030
C          C       0.54580   0.58280   0.72320
C          C       0.52050   0.66700   0.69020
C          C       0.52760   0.48400   0.70610
C          C       0.47820   0.65520   0.63970
C          C       0.53880   0.76570   0.70880
C          C       0.58940   0.59510   0.77320
C          C       0.70570   0.55340   0.83800
C          C       0.74640   0.59660   0.87470
H          H       0.75350   0.61390   0.91530
C          C       0.77660   0.61460   0.85160
H          H       0.80470   0.64290   0.87720
C          C       0.76690   0.59260   0.79300
H          H       0.78830   0.60320   0.77820
C          C       0.72550   0.55440   0.75560
H          H       0.71760   0.54250   0.71400
C          C       0.69570   0.53380   0.77820
H          H       0.66770   0.50540   0.75240
C          C       0.68230   0.40080   0.90220
C          C       0.70220   0.33280   0.87860
H          H       0.70920   0.35230   0.84690
C          C       0.71170   0.23500   0.90210
H          H       0.72570   0.18940   0.88670
C          C       0.70080   0.20670   0.94630
H          H       0.70700   0.14070   0.96120
C          C       0.68110   0.26980   0.96990
C          C       0.67220   0.37150   0.94810
H          H       0.65950   0.41720   0.96540
C          C       0.38870   0.85260   0.50820
C          C       0.35820   0.91070   0.51750
H          H       0.34290   0.88450   0.53880
C          C       0.39980   0.98930   0.45280
C          C       0.41040   0.89050   0.47640
H          H       0.43170   0.85200   0.47020
C          C       0.40860   0.65720   0.48290
C          C       0.37050   0.62790   0.43230
H          H       0.34200   0.63940   0.43040
C          C       0.37440   0.58150   0.38430
H          H       0.34830   0.56560   0.34870
C          C       0.41490   0.55810   0.38730
H          H       0.41670   0.52320   0.35500
C          C       0.45190   0.58500   0.43610
H          H       0.48010   0.56840   0.43830
C          C       0.44980   0.63730   0.48430
H          H       0.47630   0.65900   0.51760
C          C      -0.01610   1.02510   0.15540
H          H      -0.02880   1.08920   0.14390
P          P      -0.10040   0.77260   0.04030
C          C      -0.03920   0.94580   0.12430
H          H      -0.06770   0.95560   0.09120
C          C      -0.04520   0.76040   0.10550
C          C      -0.02680   0.66520   0.12580
H          H      -0.04280   0.60850   0.10410
C          C      -0.02180   0.84480   0.13970
C          C      -0.11130   0.64740   0.00820
C          C      -0.14180   0.58930   0.01750
H          H      -0.15710   0.61550   0.03880
H          H      -0.17000   0.45170   0.00330
H          H      -0.02370   0.84100   0.01760
Ag         Ag     -0.16130   0.84510   0.06000
P          P      -0.16770   0.97320   0.12860
C          C      -0.11330   0.98930   0.19490
C          C      -0.01330   0.65200   0.32420
H          H      -0.02410   0.58670   0.31160
C          C      -0.08240   0.72470   0.24130
H          H      -0.09460   0.66020   0.22900
C          C      -0.10650   0.80390   0.21160
H          H      -0.13540   0.79390   0.17970
C          C      -0.04580   0.91720   0.27680
C          C      -0.02050   0.83300   0.30980
C          C      -0.03880   0.73430   0.29120
C          C      -0.08940   0.90490   0.22680
C          C      -0.20570   0.94660   0.16200
C          C      -0.24640   0.90340   0.12530
H          H      -0.25350   0.88610   0.08470
C          C      -0.27660   0.88540   0.14840
H          H      -0.30470   0.85710   0.12280
C          C      -0.26690   0.90740   0.20700
H          H      -0.28830   0.89680   0.22180
C          C      -0.22550   0.94560   0.24440
H          H      -0.21760   0.95750   0.28600
C          C      -0.19570   0.96620   0.22180
H          H      -0.16770   0.99460   0.24760
O          O       0.80230   0.69880   1.09320
H          H       0.67320   0.24770   1.00040
S          S       0.76420   0.63340   1.06710
O          O       0.72200   0.68570   1.04170
O          O       0.76720   0.55170   1.03050
C          C       0.76440   0.57100   1.13330
F          F       0.73190   0.50320   1.11650
F          F       0.75830   0.63630   1.16930
F          F       0.80210   0.52460   1.16570
C          C      -0.14990   0.49170  -0.00450
C          C      -0.13030   0.45370  -0.03590
H          H      -0.13670   0.38770  -0.05070
C          C      -0.10020   0.51070  -0.04720
H          H      -0.08660   0.48400  -0.07050
C          C      -0.08960   0.60950  -0.02360
H          H      -0.06830   0.64800  -0.02980
C          C      -0.09140   0.84280  -0.01710
C          C      -0.12950   0.87210  -0.06770
H          H      -0.15800   0.86060  -0.06960
C          C      -0.12560   0.91850  -0.11570
H          H      -0.15170   0.93440  -0.15130
C          C      -0.08510   0.94190  -0.11270
H          H      -0.08330   0.97680  -0.14500
C          C      -0.04810   0.91500  -0.06390
H          H      -0.01990   0.93160  -0.06170
C          C      -0.05020   0.86270  -0.01570
C          C       0.01610   1.02510   0.34460
H          H       0.02880   1.08920   0.35610
C          C      -0.09430   1.08470   0.21290
H          H      -0.11040   1.14150   0.19160
C          C      -0.05210   1.09700   0.26160
H          H      -0.04010   1.16180   0.27270
C          C      -0.02760   1.01600   0.29390
C          C      -0.18230   1.09920   0.09780
C          C      -0.20220   1.16720   0.12140
H          H      -0.20920   1.14770   0.15310
C          C      -0.21170   1.26500   0.09790
H          H      -0.22570   1.31060   0.11330
C          C      -0.20080   1.29330   0.05370
H          H      -0.20700   1.35930   0.03880
C          C      -0.18110   1.23020   0.03010
C          C      -0.17220   1.12850   0.05190
H          H      -0.15950   1.08280   0.03460
H          H      -0.17320   1.25230  -0.00040
Ag         Ag      0.66130   0.34510   0.44000
P          P       0.66770   0.47320   0.37140
P          P       0.39960   0.27260   0.04030
C          C       0.61330   0.48930   0.30510
C          C       0.59430   0.58470   0.28710
H          H       0.61040   0.64150   0.30840
C          C       0.55210   0.59700   0.23840
H          H       0.54010   0.66180   0.22730
C          C       0.48390   0.52510   0.15540
H          H       0.47120   0.58920   0.14390
C          C       0.46080   0.44580   0.12430
H          H       0.43230   0.45560   0.09120
C          C       0.45480   0.26040   0.10550
C          C       0.47320   0.16520   0.12580
H          H       0.45720   0.10850   0.10410
C          C       0.51330   0.15200   0.17580
H          H       0.52410   0.08670   0.18840
C          C       0.58240   0.22470   0.25870
H          H       0.59460   0.16020   0.27100
C          C       0.60650   0.30390   0.28840
H          H       0.63540   0.29390   0.32030
C          C       0.54580   0.41720   0.22320
C          C       0.52050   0.33300   0.19020
C          C       0.52760   0.51600   0.20610
C          C       0.47820   0.34480   0.13970
C          C       0.53880   0.23430   0.20880
C          C       0.58940   0.40490   0.27320
C          C       0.70570   0.44660   0.33800
C          C       0.74640   0.40340   0.37470
H          H       0.75350   0.38610   0.41530
C          C       0.77660   0.38540   0.35160
H          H       0.80470   0.35710   0.37720
C          C       0.76690   0.40740   0.29300
H          H       0.78830   0.39680   0.27820
C          C       0.72550   0.44560   0.25560
H          H       0.71760   0.45750   0.21400
C          C       0.69570   0.46620   0.27820
H          H       0.66770   0.49460   0.25240
C          C       0.68230   0.59920   0.40220
C          C       0.70220   0.66720   0.37860
H          H       0.70920   0.64770   0.34690
C          C       0.71170   0.76500   0.40210
H          H       0.72570   0.81060   0.38670
C          C       0.70080   0.79330   0.44630
H          H       0.70700   0.85930   0.46120
C          C       0.68110   0.73020   0.46990
H          H       0.67320   0.75230   0.50040
C          C       0.67220   0.62850   0.44810
H          H       0.65950   0.58280   0.46540
C          C       0.38870   0.14740   0.00820
C          C       0.35820   0.08930   0.01750
H          H       0.34290   0.11550   0.03880
H          H       0.47630   0.34100   0.01760
S          S       0.76420   0.36660   0.56710
O          O       0.72200   0.31430   0.54170
O          O       0.76710   0.44830   0.53050
O          O       0.80230   0.30120   0.59320
C          C       0.76440   0.42900   0.63330
F          F       0.73190   0.49680   0.61650
F          F       0.75830   0.36370   0.66930
F          F       0.80210   0.47540   0.66570
Ag         Ag      0.33870   0.34510   0.06000
Ag         Ag     -0.16130   0.15490   0.56000
P          P       0.60040   0.27260   0.45970
O          O      -0.30230   0.19880   0.40680
P          P       0.33230   0.47320   0.12860
C          C       0.38670   0.48930   0.19490
C          C       0.40570   0.58470   0.21290
H          H       0.38960   0.64150   0.19160
C          C       0.44790   0.59700   0.26160
H          H       0.45990   0.66180   0.27270
C          C       0.51610   0.52510   0.34460
H          H       0.52880   0.58920   0.35610
C          C       0.53920   0.44580   0.37570
H          H       0.56770   0.45560   0.40880
C          C       0.54520   0.26040   0.39450
C          C       0.52680   0.16520   0.37420
H          H       0.54280   0.10850   0.39590
C          C       0.48670   0.15200   0.32420
H          H       0.47590   0.08670   0.31160
C          C       0.41760   0.22470   0.24130
H          H       0.40540   0.16020   0.22900
C          C       0.39350   0.30390   0.21160
H          H       0.36460   0.29390   0.17970
C          C       0.45420   0.41720   0.27680
C          C       0.47950   0.33300   0.30980
C          C       0.47240   0.51600   0.29390
C          C       0.52180   0.34480   0.36030
C          C       0.46120   0.23430   0.29120
C          C       0.41060   0.40490   0.22680
C          C       0.29430   0.44660   0.16200
C          C       0.25360   0.40340   0.12530
H          H       0.24650   0.38610   0.08470
C          C       0.22340   0.38540   0.14840
H          H       0.19530   0.35710   0.12280
C          C       0.23310   0.40740   0.20700
H          H       0.21170   0.39680   0.22180
C          C       0.27450   0.44560   0.24440
H          H       0.28240   0.45750   0.28600
C          C       0.30430   0.46620   0.22180
H          H       0.33230   0.49460   0.24760
C          C       0.31770   0.59920   0.09780
C          C       0.29780   0.66720   0.12140
H          H       0.29080   0.64770   0.15310
C          C       0.28830   0.76500   0.09790
H          H       0.27430   0.81060   0.11330
C          C       0.29920   0.79330   0.05370
H          H       0.29300   0.85930   0.03880
C          C       0.31890   0.73020   0.03010
C          C       0.32780   0.62850   0.05190
H          H       0.34050   0.58280   0.03460
C          C       0.61130   0.14740   0.49180
C          C       0.64180   0.08930   0.48250
H          H       0.65710   0.11550   0.46120
C          C       0.60020   0.01070   0.54720
C          C       0.58960   0.10950   0.52360
H          H       0.56830   0.14800   0.52980
C          C       0.59140   0.34280   0.51710
C          C       0.62950   0.37210   0.56770
H          H       0.65800   0.36060   0.56960
C          C       0.62560   0.41850   0.61570
H          H       0.65170   0.43440   0.65130
C          C       0.58510   0.44190   0.61270
H          H       0.58330   0.47680   0.64500
C          C       0.54810   0.41500   0.56390
H          H       0.51990   0.43160   0.56170
C          C       0.55020   0.36270   0.51570
H          H       0.52370   0.34100   0.48240
O          O       0.30230   0.19880   1.09320
P          P      -0.16770   0.02680   0.62860
C          C      -0.11330   0.01070   0.69490
C          C      -0.01330   0.34800   0.82420
H          H      -0.02410   0.41330   0.81160
C          C      -0.08240   0.27530   0.74130
H          H      -0.09460   0.33980   0.72900
C          C      -0.10650   0.19610   0.71160
H          H      -0.13540   0.20610   0.67970
C          C      -0.04580   0.08280   0.77680
C          C      -0.02050   0.16700   0.80980
C          C      -0.03880   0.26570   0.79120
C          C      -0.08940   0.09510   0.72680
C          C      -0.20570   0.05340   0.66200
C          C      -0.24640   0.09660   0.62530
H          H      -0.25350   0.11390   0.58470
C          C      -0.27660   0.11460   0.64840
H          H      -0.30470   0.14290   0.62280
C          C      -0.26690   0.09260   0.70700
H          H      -0.28830   0.10320   0.72180
C          C      -0.22550   0.05440   0.74440
H          H      -0.21760   0.04250   0.78600
C          C      -0.19570   0.03380   0.72180
H          H      -0.16770   0.00540   0.74760
S          S      -0.26420   0.13340   0.43290
O          O      -0.22200   0.18570   0.45830
O          O      -0.26720   0.05170   0.46950
C          C      -0.26440   0.07100   0.36670
F          F      -0.23190   0.00320   0.38350
F          F      -0.25830   0.13630   0.33070
F          F      -0.30210   0.02460   0.33430
P          P      -0.10040   0.22740   0.54030
S          S       0.26420   0.13340   1.06710
O          O       0.22200   0.18570   1.04170
O          O       0.26710   0.05170   1.03050
C          C       0.26440   0.07100   1.13330
F          F       0.23190   0.00320   1.11650
F          F       0.25830   0.13630   1.16930
F          F       0.30210   0.02460   1.16570
C          C      -0.03920   0.05420   0.62430
H          H      -0.06770   0.04440   0.59120
C          C      -0.04520   0.23960   0.60550
C          C      -0.02680   0.33480   0.62580
H          H      -0.04280   0.39150   0.60410
C          C      -0.02180   0.15520   0.63970
C          C      -0.11130   0.35260   0.50820
C          C      -0.14180   0.41070   0.51750
H          H      -0.15710   0.38450   0.53880
C          C      -0.14990   0.50830   0.49550
H          H      -0.17000   0.54830   0.50330
C          C      -0.13030   0.54630   0.46410
H          H      -0.13670   0.61230   0.44930
C          C      -0.10020   0.48930   0.45280
H          H      -0.08660   0.51600   0.42950
C          C      -0.08960   0.39050   0.47640
H          H      -0.06830   0.35200   0.47020
C          C      -0.09140   0.15720   0.48290
C          C      -0.12950   0.12790   0.43230
H          H      -0.15800   0.13940   0.43040
C          C      -0.12560   0.08150   0.38430
H          H      -0.15170   0.06560   0.34870
C          C      -0.08510   0.05810   0.38730
H          H      -0.08330   0.02320   0.35500
C          C      -0.04810   0.08500   0.43610
H          H      -0.01990   0.06840   0.43830
C          C      -0.05020   0.13730   0.48430
H          H      -0.02370   0.15900   0.51760
C          C       0.39980   0.01070  -0.04720
C          C       0.41040   0.10950  -0.02360
H          H       0.43170   0.14800  -0.02980
C          C       0.40860   0.34280  -0.01710
C          C       0.37050   0.37210  -0.06770
H          H       0.34200   0.36060  -0.06960
C          C       0.37440   0.41850  -0.11570
H          H       0.34830   0.43440  -0.15130
C          C       0.41490   0.44190  -0.11270
H          H       0.41670   0.47680  -0.14500
C          C       0.45190   0.41500  -0.06390
H          H       0.48010   0.43160  -0.06170
C          C       0.44980   0.36270  -0.01570
H          H       0.33000  -0.04830   0.00330
C          C       0.35010  -0.00830  -0.00450
C          C       0.36970  -0.04630  -0.03590
H          H       0.36330  -0.11230  -0.05070
H          H       0.41340  -0.01600  -0.07050
H          H       0.32680   0.75230  -0.00040
S          S       0.23580   0.36660  -0.06710
O          O       0.27800   0.31430  -0.04170
O          O       0.23280   0.44830  -0.03050
O          O       0.19770   0.30120  -0.09320
C          C       0.23560   0.42900  -0.13330
F          F       0.26810   0.49680  -0.11650
F          F       0.24170   0.36370  -0.16930
F          F       0.19790   0.47540  -0.16570
Ag         Ag      0.16130   0.15490   0.94000
P          P       0.10040   0.22740   0.95970
C          C       0.03920   0.05420   0.87570
H          H       0.06770   0.04440   0.90880
C          C       0.04520   0.23960   0.89450
C          C       0.02680   0.33480   0.87420
H          H       0.04280   0.39150   0.89590
C          C       0.02180   0.15520   0.86030
C          C       0.11130   0.35260   0.99180
C          C       0.14180   0.41070   0.98250
H          H       0.15710   0.38450   0.96120
H          H       0.17000   0.54830   0.99670
H          H       0.02370   0.15900   0.98240
P          P       0.16770   0.02680   0.87140
C          C       0.11330   0.01070   0.80510
C          C       0.01330   0.34800   0.67580
H          H       0.02410   0.41330   0.68840
C          C       0.08240   0.27530   0.75870
H          H       0.09460   0.33980   0.77100
C          C       0.10650   0.19610   0.78840
H          H       0.13540   0.20610   0.82030
C          C       0.04580   0.08280   0.72320
C          C       0.02050   0.16700   0.69020
C          C       0.03880   0.26570   0.70880
C          C       0.08940   0.09510   0.77320
C          C       0.20570   0.05340   0.83800
C          C       0.24640   0.09660   0.87470
H          H       0.25350   0.11390   0.91530
C          C       0.27660   0.11460   0.85160
H          H       0.30470   0.14290   0.87720
C          C       0.26690   0.09260   0.79300
H          H       0.28830   0.10320   0.77820
C          C       0.22550   0.05440   0.75560
H          H       0.21760   0.04250   0.71400
C          C       0.19570   0.03380   0.77820
H          H       0.16770   0.00540   0.75240
C          C       0.64990  -0.00830   0.50450
H          H       0.67000  -0.04830   0.49670
C          C       0.63030  -0.04630   0.53590
H          H       0.63670  -0.11230   0.55070
H          H       0.58660  -0.01600   0.57050
C          C       0.14990   0.50830   1.00450
C          C       0.13030   0.54630   1.03590
H          H       0.13670   0.61230   1.05070
C          C       0.10020   0.48930   1.04720
H          H       0.08660   0.51600   1.07050
C          C       0.08960   0.39050   1.02360
H          H       0.06830   0.35200   1.02980
C          C       0.09140   0.15720   1.01710
C          C       0.12950   0.12790   1.06770
H          H       0.15800   0.13940   1.06960
C          C       0.12560   0.08150   1.11570
H          H       0.15170   0.06560   1.15130
C          C       0.08510   0.05810   1.11270
H          H       0.08330   0.02320   1.14500
C          C       0.04810   0.08500   1.06390
H          H       0.01990   0.06840   1.06170
C          C       0.05020   0.13730   1.01570
C          C       0.01610  -0.02510   0.84460
H          H       0.02880  -0.08920   0.85610
C          C      -0.09430  -0.08470   0.71290
H          H      -0.11040  -0.14150   0.69160
C          C      -0.05210  -0.09700   0.76160
H          H      -0.04010  -0.16180   0.77270
C          C      -0.02760  -0.01600   0.79390
C          C      -0.18230  -0.09920   0.59780
C          C      -0.20220  -0.16720   0.62140
H          H      -0.20920  -0.14770   0.65310
C          C      -0.21170  -0.26500   0.59790
H          H      -0.22570  -0.31060   0.61330
C          C      -0.20080  -0.29330   0.55370
H          H      -0.20700  -0.35930   0.53880
C          C      -0.18110  -0.23020   0.53010
H          H      -0.17320  -0.25230   0.49960
C          C      -0.17220  -0.12850   0.55190
H          H      -0.15950  -0.08280   0.53460
H          H       0.17320  -0.25230   1.00040
C          C       0.09430  -0.08470   0.78710
H          H       0.11040  -0.14150   0.80840
C          C       0.05210  -0.09700   0.73840
H          H       0.04010  -0.16180   0.72730
C          C       0.02760  -0.01600   0.70610
C          C       0.18230  -0.09920   0.90220
C          C       0.20220  -0.16720   0.87860
H          H       0.20920  -0.14770   0.84690
C          C       0.21170  -0.26500   0.90210
H          H       0.22570  -0.31060   0.88670
C          C       0.20080  -0.29330   0.94630
H          H       0.20700  -0.35930   0.96120
C          C       0.18110  -0.23020   0.96990
C          C       0.17220  -0.12850   0.94810
H          H       0.15950  -0.08280   0.96540
C          C      -0.01610  -0.02510   0.65540
H          H      -0.02880  -0.08920   0.64390
C          C       0.64990   1.00830   1.00450
C          C       0.63030   1.04630   1.03590
H          H       0.63670   1.11230   1.05070
H          H       0.58660   1.01600   1.07050
H          H       0.67000   1.04830   0.99670
C          C       0.60020   0.98930   1.04720
C          C       0.58960   0.89050   1.02360
H          H       0.56830   0.85200   1.02980
C          C       0.59140   0.65720   1.01710
C          C       0.62950   0.62790   1.06770
H          H       0.65800   0.63940   1.06960
C          C       0.62560   0.58150   1.11570
H          H       0.65170   0.56560   1.15130
C          C       0.58510   0.55810   1.11270
H          H       0.58330   0.52320   1.14500
C          C       0.54810   0.58500   1.06390
H          H       0.51990   0.56840   1.06170
C          C       0.55020   0.63730   1.01570
C          C       0.35010   1.00830   0.49550
H          H       0.33000   1.04830   0.50330
C          C       0.36970   1.04630   0.46410
H          H       0.36330   1.11230   0.44930
H          H       0.41340   1.01600   0.42950
