data_crystal

_cell_length_a    15.68800
_cell_length_b    15.87100
_cell_length_c    12.88300
_cell_angle_alpha 93.88000
_cell_angle_beta  93.78000
_cell_angle_gamma 89.52000

_symmetry_space_group_name_Hall 'P 1'
_symmetry_space_group_name_H-M  'P 1'

loop_
_symmetry_equiv_pos_as_xyz
 'x,y,z'

loop_
_atom_site_label
_atom_site_type_symbol
_atom_site_fract_x
_atom_site_fract_y
_atom_site_fract_z
Zn         Zn      0.96870   0.08520   0.63270
O          O       0.92090   0.07140   0.77710
O          O       0.04620   0.98290   0.61850
C          C       0.85280   0.19810   0.50950
C          C       0.84630   0.95560   0.51060
O          O       0.87020   0.97460   0.42250
Zn         Zn      0.95930   0.07000   0.41960
O          O       0.96390   0.07410   0.26000
O          O       0.04600   0.16650   0.45890
Zn         Zn      0.46440   0.59000   0.11730
O          O       0.49480   0.57910   0.27740
H          H       0.55360   0.55870   0.28420
Zn         Zn      0.45730   0.56050   0.90870
O          O       0.44530   0.56150   0.74880
H          H       0.42110   0.61500   0.72740
O          O       0.55860   0.67490   0.11450
O          O       0.55380   0.65320   0.93820
O          O       0.55840   0.49650   0.07920
O          O       0.36640   0.47890   0.95350
C          C       0.27500   0.40100   0.05000
C          C       0.21800   0.38270   0.96310
H          H       0.22920   0.41110   0.89060
C          C       0.14730   0.33170   0.97040
H          H       0.10270   0.32140   0.90230
C          C       0.13210   0.29560   0.06440
C          C       0.19220   0.31060   0.14940
H          H       0.18260   0.28190   0.22230
C          C       0.26180   0.36350   0.14300
H          H       0.30630   0.37710   0.21050
C          C       0.05240   0.24970   0.07930
C          C       0.97440   0.26430   0.00990
H          H       0.97700   0.31070   0.95150
C          C       0.88990   0.25430   0.06510
C          C       0.87710   0.15940   0.05930
C          C       0.95060   0.11860   0.02820
C          C       0.01680   0.17610   0.99780
C          C       0.08000   0.13430   0.93220
H          H       0.12370   0.17160   0.89210
C          C       0.09080   0.04880   0.93080
H          H       0.14260   0.01970   0.88850
C          C       0.81310   0.30880   0.03770
C          C       0.78930   0.36990   0.11460
H          H       0.82850   0.37810   0.18780
C          C       0.71620   0.41870   0.10010
H          H       0.69780   0.46520   0.16070
C          C       0.66500   0.40900   0.00690
C          C       0.68950   0.35000   0.92820
H          H       0.65010   0.34310   0.85520
C          C       0.76230   0.29980   0.94360
H          H       0.77900   0.25250   0.88280
C          C       0.58560   0.46190   0.99550
C          C       0.58660   0.68480   0.02510
C          C       0.66520   0.73770   0.02370
C          C       0.70160   0.74950   0.92940
H          H       0.67130   0.72020   0.85760
C          C       0.77490   0.79820   0.92820
H          H       0.80250   0.80820   0.85450
C          C       0.81290   0.83700   0.02100
C          C       0.77650   0.82450   0.11550
H          H       0.80620   0.85320   0.18840
C          C       0.70370   0.77500   0.11670
H          H       0.67590   0.76420   0.18990
C          C       0.88900   0.89120   0.01610
C          C       0.96610   0.85590   0.98860
H          H       0.97170   0.78730   0.98120
C          C       0.03950   0.90390   0.97230
C          C       0.03210   0.99240   0.97560
C          C       0.95610   0.03000   0.01470
C          C       0.88360   0.98100   0.03570
C          C       0.80960   0.02420   0.06990
H          H       0.75390   0.98740   0.08490
C          C       0.80630   0.11190   0.08240
H          H       0.74810   0.14360   0.10620
C          C       0.12090   0.85680   0.96220
C          C       0.19170   0.87810   0.03190
H          H       0.18850   0.93500   0.08400
C          C       0.26240   0.82460   0.04000
H          H       0.31470   0.83940   0.09820
C          C       0.26640   0.75040   0.97510
C          C       0.19840   0.73140   0.90130
H          H       0.20230   0.67410   0.85020
C          C       0.12610   0.78280   0.89620
H          H       0.07230   0.76540   0.84100
C          C       0.33950   0.68920   0.98620
O          O       0.37910   0.49630   0.13000
H          H       0.46000   0.53300   0.29790
H          H       0.49640   0.55120   0.71070
C          C       0.69170   0.36410   0.42640
H          H       0.64920   0.37720   0.35880
C          C       0.74270   0.29200   0.42390
H          H       0.74130   0.24810   0.35490
O          O       0.86300   0.15820   0.42190
C          C       0.20640   0.37130   0.44460
H          H       0.22210   0.39330   0.36990
C          C       0.15740   0.29910   0.44860
H          H       0.13330   0.26330   0.37780
C          C       0.68130   0.78440   0.43380
H          H       0.63450   0.76680   0.36980
C          C       0.73210   0.85560   0.42990
H          H       0.72630   0.89390   0.36260
C          C       0.22370   0.77960   0.44500
H          H       0.25870   0.75980   0.37710
C          C       0.17300   0.85190   0.44460
H          H       0.16680   0.88910   0.37650
C          C       0.79700   0.27480   0.51070
C          C       0.80060   0.33130   0.59920
H          H       0.84310   0.31680   0.66600
C          C       0.75140   0.40460   0.60060
H          H       0.75500   0.44900   0.66910
C          C       0.69570   0.42140   0.51460
C          C       0.64410   0.49990   0.51690
C          C       0.68580   0.57760   0.52120
H          H       0.75530   0.57830   0.52140
C          C       0.55360   0.49790   0.51480
C          C       0.50720   0.42040   0.51500
H          H       0.54300   0.36130   0.51620
H          H       0.87900   0.02760   0.75330
H          H       0.96220   0.04630   0.82630
O          O       0.86650   0.99530   0.59800
C          C       0.42030   0.41990   0.51720
H          H       0.38660   0.36040   0.51990
C          C       0.28290   0.49750   0.53170
C          C       0.37180   0.49670   0.52010
C          C       0.41590   0.57510   0.51820
C          C       0.23470   0.41780   0.53680
C          C       0.13630   0.27130   0.54450
C          C       0.16600   0.31640   0.63680
H          H       0.14980   0.29390   0.71100
C          C       0.21470   0.38920   0.63300
H          H       0.23790   0.42430   0.70480
C          C       0.64160   0.65440   0.52040
C          C       0.55140   0.65470   0.52000
C          C       0.50700   0.57590   0.51680
C          C       0.69120   0.73340   0.51890
C          C       0.79120   0.87920   0.51290
C          C       0.79980   0.82950   0.59880
H          H       0.84600   0.84820   0.66300
C          C       0.75150   0.75660   0.60100
H          H       0.75940   0.71730   0.66740
C          C       0.50300   0.73140   0.52740
H          H       0.53710   0.79120   0.53450
C          C       0.07240   0.95400   0.53110
C          C       0.12840   0.87760   0.53210
C          C       0.13470   0.82980   0.61970
H          H       0.10060   0.85110   0.68760
C          C       0.18340   0.75620   0.61890
H          H       0.18830   0.71900   0.68710
C          C       0.22880   0.73040   0.53200
C          C       0.27990   0.65160   0.53130
C          C       0.23910   0.57440   0.53830
H          H       0.17040   0.57400   0.54650
C          C       0.36950   0.65310   0.52370
C          C       0.41610   0.73070   0.52910
H          H       0.38100   0.78990   0.53770
O          O       0.55070   0.47030   0.90430
C          C       0.34570   0.46260   0.04380
H          H       0.90660   0.27300   0.14800
H          H       0.04260   0.23790   0.16020
O          O       0.06640   0.16960   0.63560
O          O       0.88690   0.17940   0.59760
O          O       0.05400   0.98350   0.44280
C          C       0.07910   0.19640   0.54660
O          O       0.36270   0.65100   0.90220
O          O       0.37120   0.67880   0.07810
H          H       0.97730   0.01980   0.22450
H          H       0.90880   0.09030   0.22630
