data_crystal

_cell_length_a    13.99400
_cell_length_b    25.48310
_cell_length_c    28.26420
_cell_angle_alpha 90.00000
_cell_angle_beta  92.71000
_cell_angle_gamma 90.00000

_symmetry_space_group_name_Hall 'P 1'
_symmetry_space_group_name_H-M  'P 1'

loop_
_symmetry_equiv_pos_as_xyz
 'x,y,z'

loop_
_atom_site_label
_atom_site_type_symbol
_atom_site_fract_x
_atom_site_fract_y
_atom_site_fract_z
O          O       0.06210   0.62150   0.80410
H          H       0.02770   0.64820   0.88510
Mn         Mn      0.10030   0.56930   0.74830
O          O       0.23390   0.60170   0.72230
O          O       0.23040   0.52740   0.79370
O          O       0.10420   0.63560   0.68870
O          O       0.08330   0.51500   0.69160
O          O       0.08580   0.49740   0.79690
O          O       0.26960   0.47260   0.20630
O          O       0.41420   0.50260   0.20310
C          C       0.14210   0.68680   0.04220
C          C       0.04820   0.75360   0.00050
C          C       0.01000   0.72720   0.08230
C          C       0.22150   0.65080   0.03820
C          C       0.09120   0.68940   0.08320
H          H       0.10700   0.66880   0.10960
C          C       0.29570   0.54280   0.15360
C          C       0.24730   0.61340   0.08080
C          C       0.27570   0.64670   0.00030
H          H       0.32830   0.62430   0.00120
C          C       0.32690   0.50480   0.19040
C          C       0.33910   0.61120   0.09870
H          H       0.38420   0.63420   0.08730
C          C       0.17840   0.57990   0.09970
H          H       0.11540   0.58170   0.08790
C          C       0.20320   0.54400   0.13600
H          H       0.15770   0.52160   0.14770
C          C       0.36660   0.57570   0.13340
H          H       0.43050   0.57300   0.14370
Mn         Mn      0.17320   0.46670   0.26470
Mn         Mn      0.39970   0.43070   0.25170
O          O       0.43900   0.58410   0.76820
C          C       0.03130   0.78620   0.95870
C          C       0.17770   0.71260   0.95820
C          C       0.12300   0.71760   0.99900
C          C       0.25400   0.67490   0.96100
C          C       0.47430   0.61210   0.80120
C          C       0.41560   0.63280   0.83960
C          C       0.16380   0.74370   0.91640
H          H       0.20180   0.73990   0.89050
C          C       0.31100   0.66350   0.91750
H          H       0.02410   0.95240   0.85630
C          C       0.08320   0.78310   0.91710
H          H       0.06830   0.80450   0.89110
C          C       0.26580   0.64760   0.87280
H          H       0.19950   0.64750   0.86930
C          C       0.31850   0.63290   0.83570
H          H       0.28750   0.62280   0.80730
C          C       0.46120   0.64820   0.88230
C          C       0.00050   0.89300   0.90170
H          H       0.06410   0.88900   0.91210
C          C       0.41010   0.66350   0.92030
H          H       0.44240   0.67390   0.94820
Mn         Mn      0.32680   0.53330   0.73530
O          O       0.39790   0.54080   0.66990
H          H       0.36730   0.52360   0.64840
H          H       0.39950   0.57300   0.66220
O          O       0.41380   0.46750   0.75690
H          H       0.38560   0.43940   0.74810
H          H       0.42220   0.46760   0.78690
O          O       0.22860   0.47950   0.69860
O          O       0.26610   0.39830   0.27770
O          O       0.39580   0.36440   0.31130
C          C       0.00460   0.25930   0.45840
C          C       0.30790   0.36820   0.30920
C          C       0.14310   0.47960   0.68340
H          H       0.02990   0.22970   0.39240
C          C       0.09780   0.32480   0.37570
H          H       0.03130   0.32570   0.37250
C          C       0.06920   0.36090   0.57960
C          C       0.04490   0.32220   0.53830
C          C       0.02360   0.43110   0.63230
C          C       0.11360   0.43730   0.64880
C          C       0.15130   0.33950   0.33660
H          H       0.12120   0.34760   0.30750
C          C       0.14060   0.30920   0.41820
C          C       0.24790   0.34130   0.34300
C          C       0.10110   0.32620   0.50080
H          H       0.15320   0.34880   0.50210
C          C       0.18420   0.40470   0.63040
H          H       0.24720   0.40830   0.64180
C          C       0.29000   0.32190   0.38570
H          H       0.35630   0.31850   0.38810
C          C       0.08090   0.29670   0.46070
C          C       0.24040   0.30810   0.42300
H          H       0.27150   0.29790   0.45130
C          C       0.16330   0.36860   0.59690
H          H       0.21220   0.34850   0.58500
O          O       0.06100   0.41590   0.23180
C          C       0.46870   0.21380   0.04130
C          C       0.32230   0.28740   0.04180
C          C       0.37700   0.28240   0.00100
C          C       0.24600   0.32510   0.03900
C          C       0.02570   0.38790   0.19880
C          C       0.08440   0.36720   0.16040
C          C       0.33620   0.25630   0.08360
H          H       0.29820   0.26010   0.10950
C          C       0.18900   0.33650   0.08250
H          H       0.47590   0.04760   0.14370
C          C       0.41680   0.21690   0.08290
H          H       0.43180   0.19550   0.10890
C          C       0.23410   0.35240   0.12720
H          H       0.30050   0.35250   0.13070
C          C       0.18150   0.36710   0.16430
H          H       0.21250   0.37720   0.19270
C          C       0.03880   0.35180   0.11770
C          C       0.49950   0.10700   0.09830
H          H       0.43590   0.11100   0.08790
C          C       0.08990   0.33650   0.07970
H          H       0.05760   0.32610   0.05180
O          O       0.10210   0.45920   0.33010
H          H       0.13280   0.47640   0.35160
H          H       0.10060   0.42700   0.33780
O          O       0.08620   0.53250   0.24310
H          H       0.11450   0.56060   0.25190
H          H       0.07780   0.53240   0.21310
O          O       0.27130   0.52050   0.30140
C          C       0.35790   0.31320   0.95780
C          C       0.45180   0.24640   0.99950
C          C       0.49000   0.27280   0.91770
C          C       0.27850   0.34920   0.96180
C          C       0.40880   0.31060   0.91680
H          H       0.39300   0.33120   0.89040
C          C       0.20440   0.45720   0.84640
C          C       0.25260   0.38660   0.91920
C          C       0.22430   0.35330   0.99970
H          H       0.17170   0.37570   0.99880
C          C       0.17310   0.49520   0.80960
C          C       0.16090   0.38880   0.90130
H          H       0.11580   0.36580   0.91270
C          C       0.32160   0.42010   0.90030
H          H       0.38460   0.41830   0.91210
C          C       0.29680   0.45600   0.86400
H          H       0.34230   0.47840   0.85230
C          C       0.13340   0.42430   0.86660
H          H       0.06950   0.42700   0.85630
O          O       0.43790   0.37850   0.19590
H          H       0.47230   0.35180   0.11490
O          O       0.41670   0.48500   0.30840
C          C       0.49540   0.74070   0.54160
C          C       0.19210   0.63180   0.69080
C          C       0.35690   0.52040   0.31660
H          H       0.47010   0.77030   0.60760
C          C       0.40220   0.67520   0.62430
H          H       0.46870   0.67430   0.62750
C          C       0.43080   0.63910   0.42040
C          C       0.45510   0.67780   0.46170
C          C       0.47640   0.56890   0.36770
C          C       0.38640   0.56270   0.35120
C          C       0.34870   0.66050   0.66340
H          H       0.37870   0.65240   0.69250
C          C       0.35940   0.69080   0.58180
C          C       0.25210   0.65870   0.65700
C          C       0.39900   0.67380   0.49920
H          H       0.34680   0.65120   0.49790
C          C       0.31590   0.59530   0.36960
H          H       0.25280   0.59170   0.35820
C          C       0.20990   0.67810   0.61430
H          H       0.14370   0.68150   0.61190
C          C       0.41910   0.70330   0.53930
C          C       0.25960   0.69190   0.57700
H          H       0.22860   0.70210   0.54870
C          C       0.33670   0.63140   0.40310
H          H       0.28780   0.65150   0.41500
O          O       0.41670   0.01500   0.80840
Mn         Mn      0.17320   0.03330   0.76470
Mn         Mn      0.39970   0.06930   0.75170
O          O       0.06100   0.08410   0.73180
C          C       0.46870   0.28620   0.54130
C          C       0.32230   0.21260   0.54180
O          O       0.08580   0.00260   0.29690
C          C       0.35790   0.18680   0.45780
C          C       0.45180   0.25360   0.49950
C          C       0.37700   0.21760   0.50100
C          C       0.24600   0.17490   0.53900
C          C       0.02560   0.11210   0.69880
C          C       0.08440   0.13280   0.66040
C          C       0.49000   0.22720   0.41770
C          C       0.33620   0.24370   0.58360
H          H       0.29820   0.23990   0.60950
C          C       0.27850   0.15080   0.46180
C          C       0.40870   0.18940   0.41680
H          H       0.39300   0.16880   0.39040
C          C       0.18900   0.16350   0.58250
C          C       0.20440   0.04280   0.34640
C          C       0.25270   0.11340   0.41920
H          H       0.47590   0.45240   0.64370
C          C       0.41680   0.28310   0.58290
H          H       0.43180   0.30450   0.60890
C          C       0.22430   0.14670   0.49970
H          H       0.17170   0.12430   0.49880
C          C       0.17310   0.00480   0.30960
C          C       0.23420   0.14760   0.62720
H          H       0.30060   0.14750   0.63070
C          C       0.18160   0.13290   0.66430
H          H       0.21250   0.12280   0.69270
C          C       0.03880   0.14820   0.61770
C          C       0.16090   0.11120   0.40130
H          H       0.11580   0.13420   0.41270
C          C       0.49950   0.39300   0.59830
H          H       0.43590   0.38900   0.58790
C          C       0.32160   0.07990   0.40030
H          H       0.38460   0.08170   0.41210
C          C       0.08990   0.16350   0.57970
H          H       0.05760   0.17390   0.55180
C          C       0.29680   0.04400   0.36400
H          H       0.34230   0.02160   0.35230
C          C       0.13340   0.07570   0.36660
H          H       0.06950   0.07300   0.35630
O          O       0.10210   0.04080   0.83010
H          H       0.13280   0.02360   0.85160
H          H       0.10060   0.07300   0.83780
O          O       0.26620   0.10170   0.77770
O          O       0.26960   0.02740   0.70630
O          O       0.43790   0.12150   0.69590
H          H       0.47230   0.14820   0.61490
O          O       0.39590   0.13560   0.81130
O          O       0.22870   0.02050   0.19860
C          C       0.14310   0.02040   0.18340
C          C       0.06920   0.13910   0.07960
C          C       0.04480   0.17780   0.03830
C          C       0.02350   0.06890   0.13230
C          C       0.11360   0.06270   0.14880
C          C       0.10110   0.17380   0.00080
H          H       0.15330   0.15120   0.00210
C          C       0.18410   0.09530   0.13040
H          H       0.24720   0.09170   0.14180
C          C       0.16330   0.13140   0.09690
H          H       0.21220   0.15150   0.08500
C          C       0.00470   0.24070   0.95840
C          C       0.30790   0.13180   0.80920
H          H       0.02990   0.27030   0.89240
C          C       0.09780   0.17520   0.87570
H          H       0.03130   0.17430   0.87250
C          C       0.15130   0.16050   0.83660
H          H       0.12130   0.15240   0.80750
C          C       0.14060   0.19080   0.91820
C          C       0.24790   0.15870   0.84300
C          C       0.29010   0.17810   0.88570
H          H       0.35630   0.18150   0.88810
C          C       0.08090   0.20330   0.96070
C          C       0.24040   0.19190   0.92300
H          H       0.27150   0.20210   0.95130
O          O       0.41380   0.03250   0.25690
H          H       0.38560   0.06060   0.24810
H          H       0.42220   0.03240   0.28690
O          O       0.23390   0.89830   0.22230
O          O       0.10420   0.86440   0.18870
C          C       0.49530   0.75930   0.04160
C          C       0.19210   0.86820   0.19080
H          H       0.47010   0.72970   0.10760
C          C       0.40220   0.82480   0.12430
H          H       0.46870   0.82570   0.12750
C          C       0.34870   0.83950   0.16340
H          H       0.37870   0.84760   0.19250
C          C       0.35950   0.80920   0.08180
C          C       0.25210   0.84130   0.15700
C          C       0.21000   0.82190   0.11430
H          H       0.14370   0.81850   0.11190
C          C       0.41910   0.79670   0.03930
C          C       0.25960   0.80810   0.07700
H          H       0.22860   0.79790   0.04870
Mn         Mn      0.32690   0.96670   0.23530
Mn         Mn      0.10030   0.93070   0.24830
O          O       0.27140   0.97950   0.80140
C          C       0.35700   0.97960   0.81660
C          C       0.43080   0.86090   0.92040
C          C       0.45510   0.82220   0.96170
C          C       0.47650   0.93110   0.86770
C          C       0.38640   0.93730   0.85120
C          C       0.39900   0.82620   0.99920
H          H       0.34680   0.84880   0.99790
C          C       0.31590   0.90470   0.86960
H          H       0.25280   0.90830   0.85820
C          C       0.33670   0.86860   0.90310
H          H       0.28780   0.84850   0.91500
O          O       0.23040   0.97260   0.29370
O          O       0.08620   0.96750   0.74310
H          H       0.11450   0.93940   0.75190
H          H       0.07780   0.96760   0.71310
O          O       0.41420   0.99740   0.70310
O          O       0.08340   0.98500   0.19160
O          O       0.06220   0.87850   0.30410
H          H       0.02770   0.85180   0.38510
O          O       0.43910   0.91590   0.26820
C          C       0.03130   0.71380   0.45870
C          C       0.17770   0.78740   0.45820
C          C       0.14210   0.81320   0.54220
C          C       0.04810   0.74640   0.50050
C          C       0.12300   0.78240   0.49900
C          C       0.25400   0.82510   0.46100
C          C       0.47430   0.88790   0.30120
C          C       0.41560   0.86720   0.33960
C          C       0.01000   0.77280   0.58230
C          C       0.16380   0.75630   0.41640
H          H       0.20180   0.76010   0.39050
C          C       0.22150   0.84920   0.53820
C          C       0.09130   0.81060   0.58320
H          H       0.10700   0.83120   0.60960
C          C       0.31100   0.83650   0.41750
C          C       0.29560   0.95720   0.65360
C          C       0.24730   0.88660   0.58080
H          H       0.02410   0.54760   0.35630
C          C       0.08310   0.71690   0.41710
H          H       0.06820   0.69550   0.39110
C          C       0.27570   0.85330   0.50030
H          H       0.32830   0.87570   0.50120
C          C       0.32690   0.99520   0.69040
C          C       0.26580   0.85240   0.37280
H          H       0.19940   0.85250   0.36930
C          C       0.31840   0.86710   0.33570
H          H       0.28750   0.87720   0.30730
C          C       0.46120   0.85180   0.38230
C          C       0.33910   0.88880   0.59870
H          H       0.38420   0.86580   0.58730
C          C       0.00050   0.60700   0.40170
H          H       0.06410   0.61100   0.41210
C          C       0.17840   0.92010   0.59970
H          H       0.11530   0.91830   0.58790
C          C       0.41010   0.83650   0.42030
H          H       0.44240   0.82610   0.44820
C          C       0.20320   0.95600   0.63600
H          H       0.15760   0.97840   0.64770
C          C       0.36660   0.92430   0.63340
H          H       0.43050   0.92700   0.64370
O          O       0.39790   0.95920   0.16990
H          H       0.36730   0.97640   0.14840
H          H       0.39950   0.92700   0.16220
O          O       0.56220   0.62150   0.80410
H          H       0.52770   0.64820   0.88510
Mn         Mn      0.60030   0.56930   0.74830
O          O       0.73390   0.60170   0.72230
O          O       0.73040   0.52740   0.79370
O          O       0.60410   0.63560   0.68870
O          O       0.58340   0.51500   0.69160
O          O       0.58580   0.49740   0.79690
O          O       0.76960   0.47260   0.20630
O          O       0.91420   0.50260   0.20310
C          C       0.64210   0.68680   0.04220
C          C       0.54820   0.75360   0.00050
C          C       0.51000   0.72720   0.08230
C          C       0.72150   0.65080   0.03820
C          C       0.59130   0.68940   0.08320
H          H       0.60700   0.66880   0.10960
C          C       0.79560   0.54280   0.15360
C          C       0.74730   0.61340   0.08080
C          C       0.77570   0.64670   0.00030
H          H       0.82830   0.62430   0.00120
C          C       0.82690   0.50480   0.19040
C          C       0.83910   0.61120   0.09870
H          H       0.88420   0.63420   0.08730
C          C       0.67840   0.57990   0.09970
H          H       0.61540   0.58170   0.08790
C          C       0.70320   0.54400   0.13600
H          H       0.65770   0.52160   0.14770
C          C       0.86660   0.57570   0.13340
H          H       0.93050   0.57300   0.14370
Mn         Mn      0.67320   0.46670   0.26470
Mn         Mn      0.89970   0.43070   0.25170
O          O       0.93900   0.58410   0.76820
C          C       0.53130   0.78620   0.95870
C          C       0.67770   0.71260   0.95820
C          C       0.62300   0.71760   0.99900
C          C       0.75400   0.67490   0.96100
C          C       0.97440   0.61210   0.80120
C          C       0.91560   0.63280   0.83960
C          C       0.66380   0.74370   0.91640
H          H       0.70180   0.73990   0.89050
C          C       0.81100   0.66350   0.91750
H          H       0.52410   0.95240   0.85630
C          C       0.58320   0.78310   0.91710
H          H       0.56830   0.80450   0.89110
C          C       0.76580   0.64760   0.87280
H          H       0.69950   0.64750   0.86930
C          C       0.81850   0.63290   0.83570
H          H       0.78750   0.62280   0.80730
C          C       0.96120   0.64820   0.88230
C          C       0.50050   0.89300   0.90170
H          H       0.56410   0.88900   0.91210
C          C       0.91010   0.66350   0.92030
H          H       0.94240   0.67390   0.94820
Mn         Mn      0.82680   0.53330   0.73530
O          O       0.89790   0.54080   0.66990
H          H       0.86730   0.52360   0.64840
H          H       0.89950   0.57300   0.66220
O          O       0.91380   0.46750   0.75690
H          H       0.88560   0.43940   0.74810
H          H       0.92220   0.46760   0.78690
O          O       0.72870   0.47950   0.69860
O          O       0.76610   0.39830   0.27770
O          O       0.89590   0.36440   0.31130
C          C       0.50470   0.25930   0.45840
C          C       0.80790   0.36820   0.30920
C          C       0.64310   0.47960   0.68340
H          H       0.52990   0.22970   0.39240
C          C       0.59780   0.32480   0.37570
H          H       0.53130   0.32570   0.37250
C          C       0.56920   0.36090   0.57960
C          C       0.54490   0.32220   0.53830
C          C       0.52350   0.43110   0.63230
C          C       0.61360   0.43730   0.64880
C          C       0.65130   0.33950   0.33660
H          H       0.62120   0.34760   0.30750
C          C       0.64050   0.30920   0.41820
C          C       0.74790   0.34130   0.34300
C          C       0.60100   0.32620   0.50080
H          H       0.65320   0.34880   0.50210
C          C       0.68420   0.40470   0.63040
H          H       0.74720   0.40830   0.64180
C          C       0.79000   0.32190   0.38570
H          H       0.85630   0.31850   0.38810
C          C       0.58090   0.29670   0.46070
C          C       0.74040   0.30810   0.42300
H          H       0.77140   0.29790   0.45130
C          C       0.66330   0.36860   0.59690
H          H       0.71230   0.34850   0.58500
O          O       0.56100   0.41590   0.23180
C          C       0.96870   0.21380   0.04130
C          C       0.82230   0.28740   0.04180
C          C       0.87700   0.28240   0.00100
C          C       0.74600   0.32510   0.03900
C          C       0.52560   0.38790   0.19880
C          C       0.58440   0.36720   0.16040
C          C       0.83620   0.25630   0.08360
H          H       0.79820   0.26010   0.10950
C          C       0.68900   0.33650   0.08250
H          H       0.97590   0.04760   0.14370
C          C       0.91680   0.21690   0.08290
H          H       0.93180   0.19550   0.10890
C          C       0.73410   0.35240   0.12720
H          H       0.80050   0.35250   0.13070
C          C       0.68150   0.36710   0.16430
H          H       0.71250   0.37720   0.19270
C          C       0.53880   0.35180   0.11770
C          C       0.99950   0.10700   0.09830
H          H       0.93590   0.11100   0.08790
C          C       0.58990   0.33650   0.07970
H          H       0.55760   0.32610   0.05180
O          O       0.60210   0.45920   0.33010
H          H       0.63280   0.47640   0.35160
H          H       0.60060   0.42700   0.33780
O          O       0.58620   0.53250   0.24310
H          H       0.61450   0.56060   0.25190
H          H       0.57780   0.53240   0.21310
O          O       0.77130   0.52050   0.30140
C          C       0.85790   0.31320   0.95780
C          C       0.95180   0.24640   0.99950
C          C       0.99000   0.27280   0.91770
C          C       0.77850   0.34920   0.96180
C          C       0.90870   0.31060   0.91680
H          H       0.89300   0.33120   0.89040
C          C       0.70440   0.45720   0.84640
C          C       0.75270   0.38660   0.91920
C          C       0.72430   0.35330   0.99970
H          H       0.67170   0.37570   0.99880
C          C       0.67310   0.49520   0.80960
C          C       0.66090   0.38880   0.90130
H          H       0.61580   0.36580   0.91270
C          C       0.82160   0.42010   0.90030
H          H       0.88460   0.41830   0.91210
C          C       0.79680   0.45600   0.86400
H          H       0.84230   0.47840   0.85230
C          C       0.63340   0.42430   0.86660
H          H       0.56950   0.42700   0.85630
O          O       0.93790   0.37850   0.19590
H          H       0.97230   0.35180   0.11490
O          O       0.91660   0.48500   0.30840
C          C       0.99530   0.74070   0.54160
C          C       0.69210   0.63180   0.69080
C          C       0.85690   0.52040   0.31660
H          H       0.97010   0.77030   0.60760
C          C       0.90220   0.67520   0.62430
H          H       0.96870   0.67430   0.62750
C          C       0.93080   0.63910   0.42040
C          C       0.95510   0.67780   0.46170
C          C       0.97640   0.56890   0.36770
C          C       0.88640   0.56270   0.35120
C          C       0.84870   0.66050   0.66340
H          H       0.87870   0.65240   0.69250
C          C       0.85950   0.69080   0.58180
C          C       0.75210   0.65870   0.65700
C          C       0.89900   0.67380   0.49920
H          H       0.84680   0.65120   0.49790
C          C       0.81580   0.59530   0.36960
H          H       0.75280   0.59170   0.35820
C          C       0.70990   0.67810   0.61430
H          H       0.64370   0.68150   0.61190
C          C       0.91910   0.70330   0.53930
C          C       0.75960   0.69190   0.57700
H          H       0.72860   0.70210   0.54870
C          C       0.83670   0.63140   0.40310
H          H       0.78770   0.65150   0.41500
O          O       0.91670   0.01500   0.80840
Mn         Mn      0.67320   0.03330   0.76470
Mn         Mn      0.89970   0.06930   0.75170
O          O       0.56100   0.08410   0.73180
C          C       0.96870   0.28620   0.54130
C          C       0.82230   0.21260   0.54180
O          O       0.58580   0.00260   0.29690
C          C       0.85790   0.18680   0.45780
C          C       0.95180   0.25360   0.49950
C          C       0.87700   0.21760   0.50100
C          C       0.74600   0.17490   0.53900
C          C       0.52560   0.11210   0.69880
C          C       0.58440   0.13280   0.66040
C          C       0.99000   0.22720   0.41770
C          C       0.83620   0.24370   0.58360
H          H       0.79820   0.23990   0.60950
C          C       0.77850   0.15080   0.46180
C          C       0.90870   0.18940   0.41680
H          H       0.89300   0.16880   0.39040
C          C       0.68900   0.16350   0.58250
C          C       0.70440   0.04280   0.34640
C          C       0.75270   0.11340   0.41920
H          H       0.97590   0.45240   0.64370
C          C       0.91680   0.28310   0.58290
H          H       0.93180   0.30450   0.60890
C          C       0.72430   0.14670   0.49970
H          H       0.67170   0.12430   0.49880
C          C       0.67310   0.00480   0.30960
C          C       0.73410   0.14760   0.62720
H          H       0.80050   0.14750   0.63070
C          C       0.68150   0.13290   0.66430
H          H       0.71250   0.12280   0.69270
C          C       0.53880   0.14820   0.61770
C          C       0.66090   0.11120   0.40130
H          H       0.61580   0.13420   0.41270
C          C       0.99950   0.39300   0.59830
H          H       0.93590   0.38900   0.58790
C          C       0.82160   0.07990   0.40030
H          H       0.88460   0.08170   0.41210
C          C       0.58990   0.16350   0.57970
H          H       0.55760   0.17390   0.55180
C          C       0.79680   0.04400   0.36400
H          H       0.84230   0.02160   0.35230
C          C       0.63340   0.07570   0.36660
H          H       0.56950   0.07300   0.35630
O          O       0.60210   0.04080   0.83010
H          H       0.63280   0.02360   0.85160
H          H       0.60060   0.07300   0.83780
O          O       0.76620   0.10170   0.77770
O          O       0.76960   0.02740   0.70630
O          O       0.93790   0.12150   0.69590
H          H       0.97230   0.14820   0.61490
O          O       0.89590   0.13560   0.81130
O          O       0.72870   0.02050   0.19860
C          C       0.64310   0.02040   0.18340
C          C       0.56920   0.13910   0.07960
C          C       0.54490   0.17780   0.03830
C          C       0.52350   0.06890   0.13230
C          C       0.61360   0.06270   0.14880
C          C       0.60100   0.17380   0.00080
H          H       0.65320   0.15120   0.00210
C          C       0.68420   0.09530   0.13040
H          H       0.74720   0.09170   0.14180
C          C       0.66330   0.13140   0.09690
H          H       0.71230   0.15150   0.08500
C          C       0.50470   0.24070   0.95840
C          C       0.80790   0.13180   0.80920
H          H       0.52990   0.27030   0.89240
C          C       0.59780   0.17520   0.87570
H          H       0.53130   0.17430   0.87250
C          C       0.65130   0.16050   0.83660
H          H       0.62120   0.15240   0.80750
C          C       0.64050   0.19080   0.91820
C          C       0.74790   0.15870   0.84300
C          C       0.79000   0.17810   0.88570
H          H       0.85630   0.18150   0.88810
C          C       0.58090   0.20330   0.96070
C          C       0.74040   0.19190   0.92300
H          H       0.77140   0.20210   0.95130
O          O       0.91380   0.03250   0.25690
H          H       0.88560   0.06060   0.24810
H          H       0.92220   0.03240   0.28690
O          O       0.73390   0.89830   0.22230
O          O       0.60420   0.86440   0.18870
C          C       0.99530   0.75930   0.04160
C          C       0.69210   0.86820   0.19080
H          H       0.97010   0.72970   0.10760
C          C       0.90220   0.82480   0.12430
H          H       0.96870   0.82570   0.12750
C          C       0.84870   0.83950   0.16340
H          H       0.87870   0.84760   0.19250
C          C       0.85950   0.80920   0.08180
C          C       0.75210   0.84130   0.15700
C          C       0.71000   0.82190   0.11430
H          H       0.64370   0.81850   0.11190
C          C       0.91910   0.79670   0.03930
C          C       0.75960   0.80810   0.07700
H          H       0.72860   0.79790   0.04870
Mn         Mn      0.82690   0.96670   0.23530
Mn         Mn      0.60030   0.93070   0.24830
O          O       0.77140   0.97950   0.80140
C          C       0.85700   0.97960   0.81660
C          C       0.93080   0.86090   0.92040
C          C       0.95510   0.82220   0.96170
C          C       0.97650   0.93110   0.86770
C          C       0.88640   0.93730   0.85120
C          C       0.89900   0.82620   0.99920
H          H       0.84680   0.84880   0.99790
C          C       0.81590   0.90470   0.86960
H          H       0.75280   0.90830   0.85820
C          C       0.83670   0.86860   0.90310
H          H       0.78780   0.84850   0.91500
O          O       0.73040   0.97260   0.29370
O          O       0.58620   0.96750   0.74310
H          H       0.61450   0.93940   0.75190
H          H       0.57780   0.96760   0.71310
O          O       0.91420   0.99740   0.70310
O          O       0.58340   0.98500   0.19160
O          O       0.56220   0.87850   0.30410
H          H       0.52770   0.85180   0.38510
O          O       0.93910   0.91590   0.26820
C          C       0.53130   0.71380   0.45870
C          C       0.67770   0.78740   0.45820
C          C       0.64210   0.81320   0.54220
C          C       0.54810   0.74640   0.50050
C          C       0.62300   0.78240   0.49900
C          C       0.75400   0.82510   0.46100
C          C       0.97430   0.88790   0.30120
C          C       0.91560   0.86720   0.33960
C          C       0.51000   0.77280   0.58230
C          C       0.66380   0.75630   0.41640
H          H       0.70180   0.76010   0.39050
C          C       0.72150   0.84920   0.53820
C          C       0.59130   0.81060   0.58320
H          H       0.60700   0.83120   0.60960
C          C       0.81100   0.83650   0.41750
C          C       0.79560   0.95720   0.65360
C          C       0.74730   0.88660   0.58080
H          H       0.52410   0.54760   0.35630
C          C       0.58310   0.71690   0.41710
H          H       0.56820   0.69550   0.39110
C          C       0.77570   0.85330   0.50030
H          H       0.82830   0.87570   0.50120
C          C       0.82690   0.99520   0.69040
C          C       0.76580   0.85240   0.37280
H          H       0.69940   0.85250   0.36930
C          C       0.81840   0.86710   0.33570
H          H       0.78750   0.87720   0.30730
C          C       0.96120   0.85180   0.38230
C          C       0.83910   0.88880   0.59870
H          H       0.88420   0.86580   0.58730
C          C       0.50050   0.60700   0.40170
H          H       0.56410   0.61100   0.41210
C          C       0.67840   0.92010   0.59970
H          H       0.61530   0.91830   0.58790
C          C       0.91010   0.83650   0.42030
H          H       0.94240   0.82610   0.44820
C          C       0.70320   0.95600   0.63600
H          H       0.65760   0.97840   0.64770
C          C       0.86660   0.92430   0.63340
H          H       0.93050   0.92700   0.64370
O          O       0.89790   0.95920   0.16990
H          H       0.86730   0.97640   0.14840
H          H       0.89950   0.92700   0.16220
