data_crystal

_cell_length_a    33.16220
_cell_length_b    19.14620
_cell_length_c    16.05340
_cell_angle_alpha 90.00000
_cell_angle_beta  90.00000
_cell_angle_gamma 90.00000

_symmetry_space_group_name_Hall 'P 1'
_symmetry_space_group_name_H-M  'P 1'

loop_
_symmetry_equiv_pos_as_xyz
 'x,y,z'

loop_
_atom_site_label
_atom_site_type_symbol
_atom_site_fract_x
_atom_site_fract_y
_atom_site_fract_z
C          C       0.90860   0.10440   0.36970
C          C       0.87530   0.13530   0.32300
C          C       0.88280   0.19030   0.26710
H          H       0.91260   0.21290   0.26090
C          C       0.85200   0.21630   0.21800
H          H       0.85800   0.25890   0.17540
C          C       0.81340   0.18720   0.22360
C          C       0.80540   0.13360   0.28030
H          H       0.77540   0.11170   0.28570
C          C       0.83620   0.10770   0.33000
H          H       0.82960   0.06540   0.37270
C          C       0.71920   0.28340   0.17380
O          O       0.94470   0.12330   0.34930
O          O       0.90000   0.05870   0.42650
C          C       0.78080   0.21470   0.08620
C          C       0.68960   0.32210   0.04160
H          H       0.66640   0.35190   0.07300
C          C       0.75000   0.25000   0.21660
H          H       0.75000   0.25000   0.28420
C          C       0.75000   0.25000   0.04230
O          O       0.96410   0.00000   0.37750
O          O       0.03630   0.10170   0.49830
Zr         Zr      0.00000   0.08740   0.39480
O          O       0.00000   0.08470   0.26360
O          O       0.00000   0.19730   0.40130
Zr         Zr      0.94030   0.00000   0.49830
C          C       0.09140   0.89560   0.36970
C          C       0.12470   0.86470   0.32300
C          C       0.11720   0.80970   0.26710
H          H       0.08740   0.78710   0.26090
C          C       0.14800   0.78370   0.21800
H          H       0.14200   0.74110   0.17540
C          C       0.18660   0.81280   0.22360
C          C       0.19460   0.86640   0.28030
H          H       0.22460   0.88830   0.28570
C          C       0.16380   0.89230   0.33000
H          H       0.17040   0.93460   0.37270
C          C       0.28080   0.71660   0.17380
O          O       0.05530   0.87670   0.34930
O          O       0.10000   0.94130   0.42650
C          C       0.21920   0.78530   0.08620
C          C       0.31040   0.67790   0.04160
H          H       0.33360   0.64810   0.07300
C          C       0.25000   0.75000   0.21660
H          H       0.25000   0.75000   0.28420
C          C       0.25000   0.75000   0.04230
O          O       0.03590   0.00000   0.37750
O          O       0.96370   0.89830   0.49830
Zr         Zr      0.00000   0.91260   0.39480
O          O       0.00000   0.91530   0.26360
O          O       0.00000   0.80270   0.40130
Zr         Zr      0.05970   0.00000   0.49830
C          C       0.09140   0.10440   0.62690
C          C       0.12470   0.13530   0.67370
C          C       0.11720   0.19030   0.72950
H          H       0.08740   0.21290   0.73570
C          C       0.14800   0.21630   0.77870
H          H       0.14200   0.25890   0.82130
C          C       0.18660   0.18720   0.77310
C          C       0.19460   0.13360   0.71640
H          H       0.22460   0.11170   0.71100
C          C       0.16380   0.10770   0.66670
H          H       0.17040   0.06540   0.62400
C          C       0.28080   0.28340   0.82280
O          O       0.05530   0.12330   0.64740
O          O       0.10000   0.05870   0.57020
C          C       0.21920   0.21470   0.91050
C          C       0.31040   0.32210   0.95510
H          H       0.33360   0.35190   0.92370
C          C       0.25000   0.25000   0.78010
H          H       0.25000   0.25000   0.71250
C          C       0.25000   0.25000   0.95440
O          O       0.03590   0.00000   0.61920
O          O       0.96370   0.10170   0.49830
Zr         Zr      0.00000   0.08740   0.60190
O          O       0.00000   0.08470   0.73310
O          O       0.00000   0.19730   0.59530
C          C       0.90860   0.89560   0.62690
C          C       0.87530   0.86470   0.67370
C          C       0.88280   0.80970   0.72950
H          H       0.91260   0.78710   0.73570
C          C       0.85200   0.78370   0.77870
H          H       0.85800   0.74110   0.82130
C          C       0.81340   0.81280   0.77310
C          C       0.80540   0.86640   0.71640
H          H       0.77540   0.88830   0.71100
C          C       0.83620   0.89230   0.66670
H          H       0.82960   0.93460   0.62400
C          C       0.71920   0.71660   0.82280
O          O       0.94470   0.87670   0.64740
O          O       0.90000   0.94130   0.57020
C          C       0.78080   0.78530   0.91050
C          C       0.68960   0.67790   0.95510
H          H       0.66640   0.64810   0.92370
C          C       0.75000   0.75000   0.78010
H          H       0.75000   0.75000   0.71250
C          C       0.75000   0.75000   0.95440
O          O       0.96410   0.00000   0.61920
O          O       0.03630   0.89830   0.49830
Zr         Zr      0.00000   0.91260   0.60190
O          O       0.00000   0.91530   0.73310
O          O       0.00000   0.80270   0.59530
C          C       0.09140   0.89560   0.62690
C          C       0.12470   0.86470   0.67370
C          C       0.11720   0.80970   0.72950
H          H       0.08740   0.78710   0.73570
C          C       0.14800   0.78370   0.77870
H          H       0.14200   0.74110   0.82130
C          C       0.18660   0.81280   0.77310
C          C       0.19460   0.86640   0.71640
H          H       0.22460   0.88830   0.71100
C          C       0.16380   0.89230   0.66670
H          H       0.17040   0.93460   0.62400
C          C       0.28080   0.71660   0.82280
O          O       0.05530   0.87670   0.64740
O          O       0.10000   0.94130   0.57020
C          C       0.21920   0.78530   0.91050
C          C       0.31040   0.67790   0.95510
H          H       0.33360   0.64810   0.92370
C          C       0.25000   0.75000   0.78010
H          H       0.25000   0.75000   0.71250
C          C       0.25000   0.75000   0.95440
C          C       0.90860   0.10440   0.62690
C          C       0.87530   0.13530   0.67370
C          C       0.88280   0.19030   0.72950
H          H       0.91260   0.21290   0.73570
C          C       0.85200   0.21630   0.77870
H          H       0.85800   0.25890   0.82130
C          C       0.81340   0.18720   0.77310
C          C       0.80540   0.13360   0.71640
H          H       0.77540   0.11170   0.71100
C          C       0.83620   0.10770   0.66670
H          H       0.82960   0.06540   0.62400
C          C       0.71920   0.28340   0.82280
O          O       0.94470   0.12330   0.64740
O          O       0.90000   0.05870   0.57020
C          C       0.78080   0.21470   0.91050
C          C       0.68960   0.32210   0.95510
H          H       0.66640   0.35190   0.92370
C          C       0.75000   0.25000   0.78010
H          H       0.75000   0.25000   0.71250
C          C       0.75000   0.25000   0.95440
C          C       0.90860   0.89560   0.36970
C          C       0.87530   0.86470   0.32300
C          C       0.88280   0.80970   0.26710
H          H       0.91260   0.78710   0.26090
C          C       0.85200   0.78370   0.21800
H          H       0.85800   0.74110   0.17540
C          C       0.81340   0.81280   0.22360
C          C       0.80540   0.86640   0.28030
H          H       0.77540   0.88830   0.28570
C          C       0.83620   0.89230   0.33000
H          H       0.82960   0.93460   0.37270
C          C       0.71920   0.71660   0.17380
O          O       0.94470   0.87670   0.34930
O          O       0.90000   0.94130   0.42650
C          C       0.78080   0.78530   0.08620
C          C       0.68960   0.67790   0.04160
H          H       0.66640   0.64810   0.07300
C          C       0.75000   0.75000   0.21660
H          H       0.75000   0.75000   0.28420
C          C       0.75000   0.75000   0.04230
C          C       0.09140   0.10440   0.36970
C          C       0.12470   0.13530   0.32300
C          C       0.11720   0.19030   0.26710
H          H       0.08740   0.21290   0.26090
C          C       0.14800   0.21630   0.21800
H          H       0.14200   0.25890   0.17540
C          C       0.18660   0.18720   0.22360
C          C       0.19460   0.13360   0.28030
H          H       0.22460   0.11170   0.28570
C          C       0.16380   0.10770   0.33000
H          H       0.17040   0.06540   0.37270
C          C       0.28080   0.28340   0.17380
O          O       0.05530   0.12330   0.34930
O          O       0.10000   0.05870   0.42650
C          C       0.21920   0.21470   0.08620
C          C       0.31040   0.32210   0.04160
H          H       0.33360   0.35190   0.07300
C          C       0.25000   0.25000   0.21660
H          H       0.25000   0.25000   0.28420
C          C       0.25000   0.25000   0.04230
C          C       0.40860   0.60440   0.36970
C          C       0.37530   0.63530   0.32300
C          C       0.38280   0.69030   0.26710
H          H       0.41260   0.71290   0.26090
C          C       0.35200   0.71630   0.21800
H          H       0.35800   0.75890   0.17540
C          C       0.31340   0.68720   0.22360
C          C       0.30540   0.63360   0.28030
H          H       0.27540   0.61170   0.28570
C          C       0.33620   0.60770   0.33000
H          H       0.32960   0.56540   0.37270
C          C       0.21920   0.78340   0.17380
O          O       0.44470   0.62330   0.34930
O          O       0.40000   0.55870   0.42650
C          C       0.28080   0.71470   0.08620
C          C       0.18960   0.82210   0.04160
H          H       0.16640   0.85190   0.07300
O          O       0.46410   0.50000   0.37750
O          O       0.53630   0.60170   0.49830
Zr         Zr      0.50000   0.58740   0.39480
O          O       0.50000   0.58470   0.26360
O          O       0.50000   0.69730   0.40130
Zr         Zr      0.44030   0.50000   0.49830
C          C       0.59140   0.39560   0.36970
C          C       0.62470   0.36470   0.32300
C          C       0.61720   0.30970   0.26710
H          H       0.58740   0.28710   0.26090
C          C       0.64800   0.28370   0.21800
H          H       0.64200   0.24110   0.17540
C          C       0.68660   0.31280   0.22360
C          C       0.69460   0.36640   0.28030
H          H       0.72460   0.38830   0.28570
C          C       0.66380   0.39230   0.33000
H          H       0.67040   0.43460   0.37270
C          C       0.78080   0.21660   0.17380
O          O       0.55530   0.37670   0.34930
O          O       0.60000   0.44130   0.42650
C          C       0.71920   0.28530   0.08620
C          C       0.81040   0.17790   0.04160
H          H       0.83360   0.14810   0.07300
O          O       0.53590   0.50000   0.37750
O          O       0.46370   0.39830   0.49830
Zr         Zr      0.50000   0.41260   0.39480
O          O       0.50000   0.41530   0.26360
O          O       0.50000   0.30270   0.40130
Zr         Zr      0.55970   0.50000   0.49830
C          C       0.59140   0.60440   0.62690
C          C       0.62470   0.63530   0.67370
C          C       0.61720   0.69030   0.72950
H          H       0.58740   0.71290   0.73570
C          C       0.64800   0.71630   0.77870
H          H       0.64200   0.75890   0.82130
C          C       0.68660   0.68720   0.77310
C          C       0.69460   0.63360   0.71640
H          H       0.72460   0.61170   0.71100
C          C       0.66380   0.60770   0.66670
H          H       0.67040   0.56540   0.62400
C          C       0.78080   0.78340   0.82280
O          O       0.55530   0.62330   0.64740
O          O       0.60000   0.55870   0.57020
C          C       0.71920   0.71470   0.91050
C          C       0.81040   0.82210   0.95510
H          H       0.83360   0.85190   0.92370
O          O       0.53590   0.50000   0.61920
O          O       0.46370   0.60170   0.49830
Zr         Zr      0.50000   0.58740   0.60190
O          O       0.50000   0.58470   0.73310
O          O       0.50000   0.69730   0.59530
C          C       0.40860   0.39560   0.62690
C          C       0.37530   0.36470   0.67370
C          C       0.38280   0.30970   0.72950
H          H       0.41260   0.28710   0.73570
C          C       0.35200   0.28370   0.77870
H          H       0.35800   0.24110   0.82130
C          C       0.31340   0.31280   0.77310
C          C       0.30540   0.36640   0.71640
H          H       0.27540   0.38830   0.71100
C          C       0.33620   0.39230   0.66670
H          H       0.32960   0.43460   0.62400
C          C       0.21920   0.21660   0.82280
O          O       0.44470   0.37670   0.64740
O          O       0.40000   0.44130   0.57020
C          C       0.28080   0.28530   0.91050
C          C       0.18960   0.17790   0.95510
H          H       0.16640   0.14810   0.92370
O          O       0.46410   0.50000   0.61920
O          O       0.53630   0.39830   0.49830
Zr         Zr      0.50000   0.41260   0.60190
O          O       0.50000   0.41530   0.73310
O          O       0.50000   0.30270   0.59530
C          C       0.59140   0.39560   0.62690
C          C       0.62470   0.36470   0.67370
C          C       0.61720   0.30970   0.72950
H          H       0.58740   0.28710   0.73570
C          C       0.64800   0.28370   0.77870
H          H       0.64200   0.24110   0.82130
C          C       0.68660   0.31280   0.77310
C          C       0.69460   0.36640   0.71640
H          H       0.72460   0.38830   0.71100
C          C       0.66380   0.39230   0.66670
H          H       0.67040   0.43460   0.62400
C          C       0.78080   0.21660   0.82280
O          O       0.55530   0.37670   0.64740
O          O       0.60000   0.44130   0.57020
C          C       0.71920   0.28530   0.91050
C          C       0.81040   0.17790   0.95510
H          H       0.83360   0.14810   0.92370
C          C       0.40860   0.60440   0.62690
C          C       0.37530   0.63530   0.67370
C          C       0.38280   0.69030   0.72950
H          H       0.41260   0.71290   0.73570
C          C       0.35200   0.71630   0.77870
H          H       0.35800   0.75890   0.82130
C          C       0.31340   0.68720   0.77310
C          C       0.30540   0.63360   0.71640
H          H       0.27540   0.61170   0.71100
C          C       0.33620   0.60770   0.66670
H          H       0.32960   0.56540   0.62400
C          C       0.21920   0.78340   0.82280
O          O       0.44470   0.62330   0.64740
O          O       0.40000   0.55870   0.57020
C          C       0.28080   0.71470   0.91050
C          C       0.18960   0.82210   0.95510
H          H       0.16640   0.85190   0.92370
C          C       0.40860   0.39560   0.36970
C          C       0.37530   0.36470   0.32300
C          C       0.38280   0.30970   0.26710
H          H       0.41260   0.28710   0.26090
C          C       0.35200   0.28370   0.21800
H          H       0.35800   0.24110   0.17540
C          C       0.31340   0.31280   0.22360
C          C       0.30540   0.36640   0.28030
H          H       0.27540   0.38830   0.28570
C          C       0.33620   0.39230   0.33000
H          H       0.32960   0.43460   0.37270
C          C       0.21920   0.21660   0.17380
O          O       0.44470   0.37670   0.34930
O          O       0.40000   0.44130   0.42650
C          C       0.28080   0.28530   0.08620
C          C       0.18960   0.17790   0.04160
H          H       0.16640   0.14810   0.07300
C          C       0.59140   0.60440   0.36970
C          C       0.62470   0.63530   0.32300
C          C       0.61720   0.69030   0.26710
H          H       0.58740   0.71290   0.26090
C          C       0.64800   0.71630   0.21800
H          H       0.64200   0.75890   0.17540
C          C       0.68660   0.68720   0.22360
C          C       0.69460   0.63360   0.28030
H          H       0.72460   0.61170   0.28570
C          C       0.66380   0.60770   0.33000
H          H       0.67040   0.56540   0.37270
C          C       0.78080   0.78340   0.17380
O          O       0.55530   0.62330   0.34930
O          O       0.60000   0.55870   0.42650
C          C       0.71920   0.71470   0.08620
C          C       0.81040   0.82210   0.04160
H          H       0.83360   0.85190   0.07300
H          H       0.51890   0.73030   0.44160
H          H       0.48080   0.72240   0.43360
H          H       0.51890   0.73040   0.63530
H          H       0.51890   0.61810   0.77280
H          H       0.48100   0.55120   0.77240
H          H       0.51890   0.44880   0.77270
H          H       0.52050   0.27520   0.63120
H          H       0.48110   0.26900   0.63470
H          H       0.48350   0.27320   0.43550
H          H       0.51540   0.44870   0.22670
H          H       0.48710   0.38590   0.22620
H          H       0.49450   0.63900   0.25940
H          H       0.45110   0.34520   0.49920
H          H       0.52760   0.49530   0.68390
H          H       0.45110   0.65480   0.49750
H          H       0.54840   0.50050   0.31400
H          H       0.96930   0.07390   0.24100
H          H       0.98160   0.21860   0.64630
H          H       0.98160   0.21860   0.35040
H          H       0.98740   0.21390   0.46150
H          H       0.97320   0.07530   0.75280
H          H       0.02050   0.04350   0.75480
H          H       0.97450   0.93260   0.24410
H          H       0.02430   0.94980   0.24170
H          H       0.97110   0.78460   0.42730
H          H       0.98160   0.78140   0.64630
H          H       0.98740   0.78610   0.53520
H          H       0.96930   0.92610   0.75560
H          H       0.05250   0.97420   0.66060
H          H       0.05370   0.97450   0.33850
H          H       0.93350   0.87210   0.49820
H          H       0.94030   0.12120   0.48440
