data_block_1
_audit_creation_date         'Wed Sep  9 10:46:53 2020'
_audit_creation_method       'generated by GDIS v0.91'


_cell_length_a             17.2138
_cell_length_b             35.4180
_cell_length_c             11.9728
_cell_angle_alpha          90.00
_cell_angle_beta          124.66
_cell_angle_gamma          90.00


_symmetry_space_group_name_H-M   'C 2/m'
_symmetry_Int_Tables_number       12


loop_
_atom_site_label
_atom_site_fract_x
_atom_site_fract_y
_atom_site_fract_z
Cu    0.0862    0.0000    0.6135
 N    0.8963    0.8136    0.9194
 H    0.9564    0.8124    0.9586
 N    0.7473    0.8320    0.7833
 H    0.6981    0.8445    0.7227
 O    0.0338    0.9611    0.6670
 O    0.8863    0.9621    0.4766
 C    0.7021    0.7562    0.9563
 C    0.8715    0.7613    0.0413
 C    0.7505    0.8030    0.8602
 C    0.8423    0.7915    0.9457
 C    0.8364    0.8372    0.8210
 C    0.6756    0.7858    0.8623
 C    0.5360    0.7513    0.8725
 C    0.8649    0.8658    0.7636
 O    0.2229    0.0000    0.7939
 C    0.9184    0.9206    0.6513
 C    0.9480    0.9505    0.5911
 C    0.5116    0.7808    0.7852
 C    0.7996    0.8859    0.6518
 H    0.7358    0.8815    0.6123
 C    0.5827    0.7977    0.7799
 H    0.5673    0.8175    0.7195
 C    0.8262    0.9131    0.5949
 H    0.7800    0.9262    0.5176
 C    0.9567    0.8738    0.8168
 H    0.0028    0.8598    0.8913
 C    0.3405    0.7724    0.7028
 H    0.3586    0.7726    0.7949
 H    0.3396    0.7469    0.6752
 H    0.2788    0.7833    0.6446
 C    0.4104    0.7951    0.6934
 C    0.9854    0.9013    0.7670
 H    0.0492    0.9069    0.8107
 C    0.3761    0.7933    0.5451
 H    0.4180    0.8076    0.5326
 H    0.3136    0.8037    0.4894
 H    0.3750    0.7675    0.5198
 C    0.4099    0.8374    0.7257
 H    0.4305    0.8400    0.8186
 H    0.3470    0.8472    0.6670
 H    0.4518    0.8511    0.7117
 H    0.2788    0.0000    0.8080
 H    0.2343    0.0000    0.8734
 H    0.4858    0.7404    0.8849


