data_crystal

_cell_length_a    11.97280
_cell_length_b    14.32639
_cell_length_c    19.68978
_cell_angle_alpha 108.51001
_cell_angle_beta  104.39442
_cell_angle_gamma 98.76554

_symmetry_space_group_name_Hall 'P 1'
_symmetry_space_group_name_H-M  'P 1'

loop_
_symmetry_equiv_pos_as_xyz
 'x,y,z'

loop_
_atom_site_label
_atom_site_type_symbol
_atom_site_fract_x
_atom_site_fract_y
_atom_site_fract_z
C          C       0.98960   0.94590   0.48760
C          C       0.49800   0.54170   0.48760
C          C       0.01040   0.05410   0.51240
C          C       0.50200   0.45830   0.51240
C          C       0.06890   0.11020   0.47740
C          C       0.40850   0.36720   0.47740
C          C       0.93110   0.88980   0.52260
C          C       0.59150   0.63280   0.52260
C          C       0.08730   0.94750   0.39400
C          C       0.30670   0.44650   0.39400
C          C       0.91270   0.05250   0.60600
C          C       0.69330   0.55350   0.60600
C          C       0.10510   0.05080   0.41700
C          C       0.31190   0.36620   0.41700
C          C       0.89490   0.94920   0.58300
C          C       0.68810   0.63380   0.58300
C          C       0.17820   0.99920   0.32560
C          C       0.14740   0.32640   0.32560
C          C       0.82180   0.00080   0.67440
C          C       0.85260   0.67360   0.67440
C          C       0.02750   0.88980   0.42840
C          C       0.40090   0.53860   0.42840
C          C       0.97250   0.11020   0.57160
C          C       0.59910   0.46140   0.57160
C          C       0.91220   0.78470   0.49740
C          C       0.58520   0.71270   0.49740
C          C       0.08780   0.21530   0.50260
C          C       0.41480   0.28730   0.50260
C          C       0.23550   0.99910   0.26840
C          C       0.03290   0.26930   0.26840
C          C       0.76450   0.00090   0.73160
C          C       0.96710   0.73070   0.73160
C          C       0.34650   0.99780   0.15880
C          C       0.81230   0.16100   0.15880
C          C       0.65350   0.00220   0.84120
C          C       0.18770   0.83900   0.84120
C          C       0.40640   0.99750   0.09900
C          C       0.69260   0.10150   0.09900
C          C       0.59360   0.00250   0.90100
C          C       0.30740   0.89850   0.90100
C          C       0.94560   0.73080   0.43840
C          C       0.49280   0.70760   0.43840
C          C       0.05440   0.26920   0.56160
C          C       0.50720   0.29240   0.56160
C          C       0.26190   0.91370   0.22820
C          C       0.96630   0.31450   0.22820
C          C       0.73810   0.08630   0.77180
C          C       0.03370   0.68550   0.77180
C          C       0.00510   0.78500   0.40460
C          C       0.39950   0.61960   0.40460
C          C       0.99490   0.21500   0.59540
C          C       0.60050   0.38040   0.59540
C          C       0.31820   0.91310   0.17380
C          C       0.85560   0.26070   0.17380
C          C       0.68180   0.08690   0.82620
C          C       0.14440   0.73930   0.82620
C          C       0.26610   0.08290   0.25240
C          C       0.98630   0.16950   0.25240
C          C       0.73390   0.91710   0.74760
C          C       0.01370   0.83050   0.74760
C          C       0.86530   0.56810   0.45520
C          C       0.58990   0.88710   0.45520
C          C       0.13470   0.43190   0.54480
C          C       0.41010   0.11290   0.54480
C          C       0.92190   0.61530   0.40980
C          C       0.48790   0.79450   0.40980
C          C       0.07810   0.38470   0.59020
C          C       0.51210   0.20550   0.59020
C          C       0.31710   0.08410   0.19740
C          C       0.88030   0.11330   0.19740
C          C       0.68290   0.91590   0.80260
C          C       0.11970   0.88670   0.80260
C          C       0.03770   0.58280   0.41340
C          C       0.37570   0.83060   0.41340
C          C       0.96230   0.41720   0.58660
C          C       0.62430   0.16940   0.58660
C          C       0.84680   0.57250   0.32520
C          C       0.47840   0.75270   0.32520
C          C       0.15320   0.42750   0.67480
C          C       0.52160   0.24730   0.67480
Cu         Cu      0.47270   0.08620   0.00000
Cu         Cu      0.52730   0.91380   0.00000
H          H       0.18540   0.14400   0.37520
H          H       0.18980   0.23120   0.37520
H          H       0.81460   0.85600   0.62480
H          H       0.81020   0.76880   0.62480
H          H       0.13090   0.85360   0.31100
H          H       0.18010   0.45740   0.31100
H          H       0.86910   0.14640   0.68900
H          H       0.81990   0.54260   0.68900
H          H       0.24200   0.85430   0.23700
H          H       0.99500   0.38270   0.23700
H          H       0.75800   0.14570   0.76300
H          H       0.00500   0.61730   0.76300
H          H       0.03030   0.74980   0.36500
H          H       0.33470   0.61520   0.36500
H          H       0.96970   0.25020   0.63500
H          H       0.66530   0.38480   0.63500
H          H       0.33620   0.85380   0.14760
H          H       0.81140   0.29380   0.14760
H          H       0.66380   0.14620   0.85240
H          H       0.18860   0.70620   0.85240
H          H       0.25170   0.14300   0.28040
H          H       0.02870   0.13740   0.28040
H          H       0.74830   0.85700   0.71960
H          H       0.97130   0.86260   0.71960
H          H       0.79110   0.58600   0.45480
H          H       0.66370   0.86880   0.45480
H          H       0.20890   0.41400   0.54520
H          H       0.33630   0.13120   0.54520
H          H       0.91750   0.59270   0.50620
H          H       0.58870   0.91350   0.50620
H          H       0.08250   0.40730   0.49380
H          H       0.41130   0.08650   0.49380
H          H       0.85090   0.49550   0.43340
H          H       0.58250   0.93790   0.43340
H          H       0.14910   0.50450   0.56660
H          H       0.41750   0.06210   0.56660
H          H       0.33160   0.14230   0.18620
H          H       0.85460   0.04390   0.18620
H          H       0.66840   0.85770   0.81380
H          H       0.14540   0.95610   0.81380
H          H       0.07780   0.61040   0.38480
H          H       0.30700   0.77440   0.38480
H          H       0.92220   0.38960   0.61520
H          H       0.69300   0.22560   0.61520
H          H       0.02050   0.50990   0.39260
H          H       0.37210   0.88270   0.39260
H          H       0.97950   0.49010   0.60740
H          H       0.62790   0.11730   0.60740
H          H       0.08770   0.60750   0.46500
H          H       0.37730   0.85750   0.46500
H          H       0.91230   0.39250   0.53500
H          H       0.62270   0.14250   0.53500
H          H       0.77190   0.59050   0.32000
H          H       0.54810   0.72950   0.32000
H          H       0.22810   0.40950   0.68000
H          H       0.45190   0.27050   0.68000
H          H       0.83280   0.49980   0.30560
H          H       0.47280   0.80580   0.30560
H          H       0.16720   0.50020   0.69440
H          H       0.52720   0.19420   0.69440
H          H       0.88900   0.60070   0.29780
H          H       0.40880   0.69710   0.29780
H          H       0.11100   0.39930   0.70220
H          H       0.59120   0.30290   0.70220
H          H       0.47080   0.27880   0.00000
H          H       0.52920   0.72120   0.00000
H          H       0.36090   0.23430   0.00000
H          H       0.63910   0.76570   0.00000
H          H       0.86050   0.74540   0.51920
H          H       0.65870   0.77380   0.51920
H          H       0.13950   0.25460   0.48080
H          H       0.34130   0.22620   0.48080
N          N       0.16330   0.08270   0.37280
N          N       0.20950   0.29010   0.37280
N          N       0.83670   0.91730   0.62720
N          N       0.79050   0.70990   0.62720
N          N       0.13200   0.91530   0.33600
N          N       0.20400   0.42070   0.33600
N          N       0.86800   0.08470   0.66400
N          N       0.79600   0.57930   0.66400
O          O       0.40570   0.07270   0.07780
O          O       0.67210   0.00510   0.07780
O          O       0.59430   0.92730   0.92220
O          O       0.32790   0.99490   0.92220
O          O       0.44760   0.92420   0.07580
O          O       0.62820   0.15160   0.07580
O          O       0.55240   0.07580   0.92420
O          O       0.37180   0.84840   0.92420
O          O       0.42900   0.22290   1.00000
O          O       0.57100   0.77710   0.00000
